ver_1.2
     RDKit          2D

  3  2  0  0  0  0  0  0  0  0999 V2000
    2.5981   -0.0000    0.0000 F   0  0  0  0  0  0  0  0  0  0  0  0
    1.2990    0.7500    0.0000 O   0  0  0  0  0  0  0  0  0  0  0  0
    0.0000    0.0000    0.0000 O   0  0  0  0  0  0  0  0  0  0  0  0
  1  2  1  0
  2  3  1  0
M  END
>  <original SMILES>  (1) 
molecule smiles

>  <N_diff_atoms>  (1) 
Difference in number of heavy atoms between the merger and the hits (negative: atoms added, positive: atoms merged)

>  <ref_pdb>  (1) 
All ligands were evaluated against the apo of Rosetta-ED-guided-minimised 6WOJ

>  <LE>  (1) 
Ligand efficiency (kcal/mol/N_heavy)

>  <%Rank>  (1) 
Sorted by 2.0x RSMD (high is bad) + 1.0x ligand efficiency (high is bad) - 2.0x N_constrained_atoms/(20+N_constrained_atoms) + 5.0x N_unconstrained_atoms/N_constrained_atoms

>  <disregarded>  (1) 
Fragments rejected for mapping

>  <∆∆G>  (1) 
Difference in Gibbs Free energy relative to unbound molecule in kcal/mol (ref2015 scorefxn; negative=Good)

>  <submitter_email>  (1) 
matteo@well.ox.ac.uk

>  <regarded>  (1) 
Fragments used for mapping

>  <ref_mols>  (1) 
all reference molecules

>  <submitter_institution>  (1) 
Universtity of Oxford

>  <N_hits>  (1) 
Number of hits used

>  <comRMSD>  (1) 
Combined RMSD from the atoms of the fragments that contributed to the position of the followup

>  <submitter_name>  (1) 
Matteo Ferla

>  <ref_url>  (1) 
https://github.com/matteoferla/NSP3-macrodomain

>  <method>  (1) 
Fragmenstein-Smallworld_NSP3_mergers

>  <N_constrained_atoms>  (1) 
Number of atoms in the submission that were constrained

>  <generation_date>  (1) 
2020-10-14

$$$$
s-487-210243-12883856
     RDKit          3D

 20 22  0  0  0  0  0  0  0  0999 V2000
   -8.8310   15.6230    2.2960 O   0  0  0  0  0  0  0  0  0  0  0  0
   -7.9050   15.1760    2.9760 C   0  0  0  0  0  0  0  0  0  0  0  0
   -7.6860   15.3680    4.3080 N   0  0  0  0  0  0  0  0  0  0  0  0
   -6.9640   14.3910    2.3720 N   0  0  0  0  0  0  0  0  0  0  0  0
   -8.4580   16.0710    5.2600 C   0  0  0  0  0  0  0  0  0  0  0  0
   -6.2100   14.5850    1.2030 C   0  0  0  0  0  0  0  0  0  0  0  0
   -8.5970   15.7050    6.5960 C   0  0  0  0  0  0  0  0  0  0  0  0
   -9.1410   17.2200    4.8550 C   0  0  0  0  0  0  0  0  0  0  0  0
   -6.8460   14.8410   -0.0100 C   0  0  0  0  0  0  0  0  0  0  0  0
   -4.8680   14.5070    1.3050 N   0  0  0  0  0  0  0  0  0  0  0  0
   -9.3900   16.4770    7.4490 C   0  0  0  0  0  0  0  0  0  0  0  0
   -9.9190   17.9870    5.6550 N   0  0  0  0  0  0  0  0  0  0  0  0
   -6.0550   15.0150   -1.1510 C   0  0  0  0  0  0  0  0  0  0  0  0
   -4.1090   14.6650    0.2160 C   0  0  0  0  0  0  0  0  0  0  0  0
  -10.0240   17.5980    6.9380 C   0  0  0  0  0  0  0  0  0  0  0  0
   -4.6610   14.9230   -1.0510 C   0  0  0  0  0  0  0  0  0  0  0  0
   -2.7300   14.5680    0.3420 C   0  0  0  0  0  0  0  0  0  0  0  0
   -3.8210   15.0760   -2.1660 C   0  0  0  0  0  0  0  0  0  0  0  0
   -1.8920   14.7120   -0.7650 C   0  0  0  0  0  0  0  0  0  0  0  0
   -2.4400   14.9650   -2.0180 C   0  0  0  0  0  0  0  0  0  0  0  0
  1  2  2  0
  2  3  1  0
  2  4  1  0
  3  5  1  0
  4  6  1  0
  5  7  2  0
  5  8  1  0
  6  9  2  0
  6 10  1  0
  7 11  1  0
  8 12  2  0
  9 13  1  0
 10 14  2  0
 11 15  2  0
 12 15  1  0
 13 16  2  0
 14 16  1  0
 14 17  1  0
 16 18  1  0
 17 19  2  0
 18 20  2  0
 19 20  1  0
M  END
>  <original SMILES>  (2) 
O=C(NC1=CC=CN=C1)NC2=CC=C3C=CC=CC3=N2

>  <N_diff_atoms>  (2) 
7

>  <ref_pdb>  (2) 
x0104_0

>  <LE>  (2) 
-0.352312

>  <%Rank>  (2) 
6.666667

>  <disregarded>  (2) 


>  <∆∆G>  (2) 
-7.39855

>  <submitter_email>  (2) 
nan

>  <regarded>  (2) 
mac-x0341,diamond-x0128_0_A

>  <ref_mols>  (2) 
x0128_0_A

>  <submitter_institution>  (2) 
nan

>  <N_hits>  (2) 
2

>  <comRMSD>  (2) 
0.350706

>  <submitter_name>  (2) 
nan

>  <ref_url>  (2) 
nan

>  <method>  (2) 
nan

>  <N_constrained_atoms>  (2) 
21

>  <generation_date>  (2) 
nan

$$$$
m-272610-18205366-17773864
     RDKit          3D

 26 29  0  0  0  0  0  0  0  0999 V2000
   -7.8190   14.8530    3.2180 O   0  0  0  0  0  0  0  0  0  0  0  0
   -7.2440   14.6550    2.1450 C   0  0  0  0  0  0  0  0  0  0  0  0
   -7.9770   14.0580    0.9740 C   0  0  0  0  0  0  0  0  0  0  0  0
   -5.9190   14.9840    1.9900 N   0  0  0  0  0  0  0  0  0  0  0  0
   -7.7170   15.0130   -0.5270 S   0  0  0  0  0  0  0  0  0  0  0  0
   -5.2400   14.9830    0.7570 C   0  0  0  0  0  0  0  0  0  0  0  0
   -5.9470   14.9900   -0.4520 C   0  0  0  0  0  0  0  0  0  0  0  0
   -3.8370   14.9660    0.7430 C   0  0  0  0  0  0  0  0  0  0  0  0
   -5.2720   14.9680   -1.6560 C   0  0  0  0  0  0  0  0  0  0  0  0
   -3.1580   14.9420   -0.4850 C   0  0  0  0  0  0  0  0  0  0  0  0
   -3.8960   14.9370   -1.6830 C   0  0  0  0  0  0  0  0  0  0  0  0
   -3.2300   14.8890   -2.9990 C   0  0  0  0  0  0  0  0  0  0  0  0
   -3.6930   15.4800   -3.9610 O   0  0  0  0  0  0  0  0  0  0  0  0
   -2.1190   14.1270   -3.1170 N   0  0  0  0  0  0  0  0  0  0  0  0
   -0.8920   14.8180   -3.2410 C   0  0  2  0  0  0  0  0  0  0  0  0
   -0.9110   15.9370   -4.2390 C   0  0  0  0  0  0  0  0  0  0  0  0
    0.2320   13.9840   -3.8030 C   0  0  1  0  0  0  0  0  0  0  0  0
   -1.9550   16.7430   -4.6950 C   0  0  0  0  0  0  0  0  0  0  0  0
    0.3840   16.1060   -4.7020 C   0  0  0  0  0  0  0  0  0  0  0  0
    1.2870   15.0770   -4.0780 C   0  0  0  0  0  0  0  0  0  0  0  0
    0.5820   12.8840   -2.8240 C   0  0  0  0  0  0  0  0  0  0  0  0
   -1.6670   17.7470   -5.6150 C   0  0  0  0  0  0  0  0  0  0  0  0
    0.6790   17.1050   -5.6110 C   0  0  0  0  0  0  0  0  0  0  0  0
    1.2070   13.0340   -1.7930 O   0  0  0  0  0  0  0  0  0  0  0  0
    0.1130   11.6660   -3.1950 O   0  0  0  0  0  0  0  0  0  0  0  0
   -0.3530   17.9290   -6.0650 C   0  0  0  0  0  0  0  0  0  0  0  0
  1  2  2  0
  2  3  1  0
  2  4  1  0
  3  5  1  0
  4  6  1  0
  5  7  1  0
  6  7  2  0
  6  8  1  0
  7  9  1  0
  8 10  2  0
  9 11  2  0
 10 11  1  0
 11 12  1  0
 12 13  2  0
 12 14  1  0
 15 14  1  6
 15 16  1  0
 15 17  1  0
 16 18  2  0
 16 19  1  0
 17 20  1  0
 19 20  1  0
 17 21  1  1
 18 22  1  0
 19 23  2  0
 21 24  2  0
 21 25  1  0
 22 26  2  0
 23 26  1  0
M  END
>  <original SMILES>  (3) 
O=C1CSC2=CC(C(=O)NC3C4=CC=CC=C4CC3C(=O)O)=CC=C2N1

>  <N_diff_atoms>  (3) 
-1

>  <ref_pdb>  (3) 
x0104_0

>  <LE>  (3) 
-0.299577

>  <%Rank>  (3) 
13.333333

>  <disregarded>  (3) 


>  <∆∆G>  (3) 
-8.088579

>  <submitter_email>  (3) 
nan

>  <regarded>  (3) 
mac-x0213,mac-x0380

>  <ref_mols>  (3) 
x0104_0

>  <submitter_institution>  (3) 
nan

>  <N_hits>  (3) 
2

>  <comRMSD>  (3) 
0.552148

>  <submitter_name>  (3) 
nan

>  <ref_url>  (3) 
nan

>  <method>  (3) 
nan

>  <N_constrained_atoms>  (3) 
26

>  <generation_date>  (3) 
nan

$$$$
s-487-14047900-150243
     RDKit          3D

 22 24  0  0  0  0  0  0  0  0999 V2000
   -9.2140   16.0200    2.4570 O   0  0  0  0  0  0  0  0  0  0  0  0
   -8.3600   15.3310    2.9850 C   0  0  0  0  0  0  0  0  0  0  0  0
   -7.7500   14.3330    2.2920 N   0  0  0  0  0  0  0  0  0  0  0  0
   -7.9040   15.4420    4.2830 N   0  0  0  0  0  0  0  0  0  0  0  0
   -6.3480   14.2070    2.4700 C   0  0  0  0  0  0  0  0  0  0  0  0
   -8.5890   16.1320    5.3010 C   0  0  0  0  0  0  0  0  0  0  0  0
   -5.6460   14.5750    1.1990 C   0  0  0  0  0  0  0  0  0  0  0  0
   -8.6490   15.7450    6.6340 C   0  0  0  0  0  0  0  0  0  0  0  0
   -9.2680   17.2970    4.9480 C   0  0  0  0  0  0  0  0  0  0  0  0
   -4.3870   14.7620    1.2660 N   0  0  0  0  0  0  0  0  0  0  0  0
   -6.3830   14.6770    0.0390 N   0  0  0  0  0  0  0  0  0  0  0  0
   -9.3720   16.5210    7.5410 C   0  0  0  0  0  0  0  0  0  0  0  0
   -9.9790   18.0690    5.8010 N   0  0  0  0  0  0  0  0  0  0  0  0
   -3.7000   15.0640    0.1090 C   0  0  0  0  0  0  0  0  0  0  0  0
   -5.7990   14.9930   -1.1660 C   0  0  0  0  0  0  0  0  0  0  0  0
  -10.0130   17.6620    7.0830 C   0  0  0  0  0  0  0  0  0  0  0  0
   -2.3270   15.2350    0.2000 C   0  0  0  0  0  0  0  0  0  0  0  0
   -4.3340   15.1870   -1.1260 C   0  0  0  0  0  0  0  0  0  0  0  0
   -6.4450   15.1030   -2.1970 O   0  0  0  0  0  0  0  0  0  0  0  0
   -1.5830   15.5230   -0.9370 C   0  0  0  0  0  0  0  0  0  0  0  0
   -3.6020   15.4750   -2.2740 C   0  0  0  0  0  0  0  0  0  0  0  0
   -2.2210   15.6410   -2.1740 C   0  0  0  0  0  0  0  0  0  0  0  0
  1  2  2  0
  2  3  1  0
  2  4  1  0
  3  5  1  0
  4  6  1  0
  5  7  1  0
  6  8  2  0
  6  9  1  0
  7 10  2  0
  7 11  1  0
  8 12  1  0
  9 13  2  0
 10 14  1  0
 11 15  1  0
 12 16  2  0
 13 16  1  0
 14 17  2  0
 14 18  1  0
 15 18  1  0
 15 19  2  0
 17 20  1  0
 18 21  2  0
 20 22  2  0
 21 22  1  0
M  END
>  <original SMILES>  (4) 
O=C(NCC1=NC2=CC=CC=C2C(=O)[NH]1)NC3=CC=CN=C3

>  <N_diff_atoms>  (4) 
6

>  <ref_pdb>  (4) 
x0104_0

>  <LE>  (4) 
-0.279334

>  <%Rank>  (4) 
20.0

>  <disregarded>  (4) 


>  <∆∆G>  (4) 
-6.145346

>  <submitter_email>  (4) 
nan

>  <regarded>  (4) 
mac-x0341,diamond-x0128_0_A

>  <ref_mols>  (4) 
x0128_0_A

>  <submitter_institution>  (4) 
nan

>  <N_hits>  (4) 
2

>  <comRMSD>  (4) 
0.554716

>  <submitter_name>  (4) 
nan

>  <ref_url>  (4) 
nan

>  <method>  (4) 
nan

>  <N_constrained_atoms>  (4) 
21

>  <generation_date>  (4) 
nan

$$$$
m-2430-8961378-14047914
     RDKit          3D

 23 25  0  0  0  0  0  0  0  0999 V2000
   -7.9110   14.8300    7.4590 C   0  0  0  0  0  0  0  0  0  0  0  0
   -8.6570   15.9750    6.8420 C   0  0  0  0  0  0  0  0  0  0  0  0
   -9.5000   16.7370    7.6350 C   0  0  0  0  0  0  0  0  0  0  0  0
   -8.5580   16.3380    5.4970 C   0  0  0  0  0  0  0  0  0  0  0  0
  -10.2080   17.7890    7.1810 N   0  0  0  0  0  0  0  0  0  0  0  0
   -9.3010   17.4320    5.0650 C   0  0  0  0  0  0  0  0  0  0  0  0
   -7.7250   15.6010    4.6460 N   0  0  0  0  0  0  0  0  0  0  0  0
  -10.1070   18.1420    5.8800 N   0  0  0  0  0  0  0  0  0  0  0  0
   -7.9530   15.3010    3.3460 C   0  0  0  0  0  0  0  0  0  0  0  0
   -8.8710   15.6560    2.6110 O   0  0  0  0  0  0  0  0  0  0  0  0
   -6.9450   14.5020    2.9420 N   0  0  0  0  0  0  0  0  0  0  0  0
   -7.0690   13.7040    1.7660 C   0  0  0  0  0  0  0  0  0  0  0  0
   -6.0850   14.2620    0.7750 C   0  0  0  0  0  0  0  0  0  0  0  0
   -4.8340   14.3580    1.0790 N   0  0  0  0  0  0  0  0  0  0  0  0
   -6.6130   14.6300   -0.4260 N   0  0  0  0  0  0  0  0  0  0  0  0
   -3.9640   14.8360    0.0950 C   0  0  0  0  0  0  0  0  0  0  0  0
   -5.8360   14.9850   -1.4860 C   0  0  0  0  0  0  0  0  0  0  0  0
   -2.6110   14.9890    0.4060 C   0  0  0  0  0  0  0  0  0  0  0  0
   -4.4010   15.1530   -1.1910 C   0  0  0  0  0  0  0  0  0  0  0  0
   -6.2940   15.1470   -2.6030 O   0  0  0  0  0  0  0  0  0  0  0  0
   -1.7140   15.4480   -0.5630 C   0  0  0  0  0  0  0  0  0  0  0  0
   -3.5190   15.6080   -2.1630 C   0  0  0  0  0  0  0  0  0  0  0  0
   -2.1720   15.7540   -1.8460 C   0  0  0  0  0  0  0  0  0  0  0  0
  1  2  1  0
  2  3  2  0
  2  4  1  0
  3  5  1  0
  4  6  2  0
  4  7  1  0
  5  8  2  0
  6  8  1  0
  7  9  1  0
  9 10  2  0
  9 11  1  0
 11 12  1  0
 12 13  1  0
 13 14  2  0
 13 15  1  0
 14 16  1  0
 15 17  1  0
 16 18  2  0
 16 19  1  0
 17 19  1  0
 17 20  2  0
 18 21  1  0
 19 22  2  0
 21 23  2  0
 22 23  1  0
M  END
>  <original SMILES>  (5) 
CC1=CN=NC=C1NC(=O)NCC2=NC3=CC=CC=C3C(=O)[NH]2

>  <N_diff_atoms>  (5) 
5

>  <ref_pdb>  (5) 
x0104_0

>  <LE>  (5) 
-0.400105

>  <%Rank>  (5) 
26.666667

>  <disregarded>  (5) 


>  <∆∆G>  (5) 
-9.202412

>  <submitter_email>  (5) 
nan

>  <regarded>  (5) 
mac-x0341,diamond-x0128_0_A

>  <ref_mols>  (5) 
x0128_0_A

>  <submitter_institution>  (5) 
nan

>  <N_hits>  (5) 
2

>  <comRMSD>  (5) 
0.533089

>  <submitter_name>  (5) 
nan

>  <ref_url>  (5) 
nan

>  <method>  (5) 
nan

>  <N_constrained_atoms>  (5) 
21

>  <generation_date>  (5) 
nan

$$$$
m-272610-18205366-17770920
     RDKit          3D

 26 28  0  0  0  0  0  0  0  0999 V2000
   -6.7110   14.3080    5.1710 C   0  0  0  0  0  0  0  0  0  0  0  0
   -6.3970   15.4440    4.3660 O   0  0  0  0  0  0  0  0  0  0  0  0
   -5.3810   15.2420    3.4870 C   0  0  0  0  0  0  0  0  0  0  0  0
   -4.1930   15.4540    3.7380 O   0  0  0  0  0  0  0  0  0  0  0  0
   -5.9410   14.7930    2.3240 N   0  0  0  0  0  0  0  0  0  0  0  0
   -5.3870   14.8740    1.0340 C   0  0  0  0  0  0  0  0  0  0  0  0
   -3.9970   14.8000    0.9490 C   0  0  0  0  0  0  0  0  0  0  0  0
   -6.1350   15.0210   -0.1390 C   0  0  0  0  0  0  0  0  0  0  0  0
   -3.3570   14.8650   -0.2950 C   0  0  0  0  0  0  0  0  0  0  0  0
   -5.4990   15.0870   -1.3870 C   0  0  0  0  0  0  0  0  0  0  0  0
   -4.1100   15.0030   -1.4670 C   0  0  0  0  0  0  0  0  0  0  0  0
   -3.4790   15.0520   -2.8120 C   0  0  0  0  0  0  0  0  0  0  0  0
   -3.9850   15.6370   -3.7480 O   0  0  0  0  0  0  0  0  0  0  0  0
   -2.3240   14.3340   -2.9560 N   0  0  0  0  0  0  0  0  0  0  0  0
   -1.0490   14.9320   -3.1750 C   0  0  2  0  0  0  0  0  0  0  0  0
   -0.9960   16.0030   -4.2090 C   0  0  0  0  0  0  0  0  0  0  0  0
    0.0660   14.0050   -3.6850 C   0  0  1  0  0  0  0  0  0  0  0  0
   -2.0000   16.8250   -4.7040 C   0  0  0  0  0  0  0  0  0  0  0  0
    0.3150   16.1010   -4.6520 C   0  0  0  0  0  0  0  0  0  0  0  0
    1.1660   15.0530   -3.9700 C   0  0  0  0  0  0  0  0  0  0  0  0
    0.3630   12.9030   -2.6640 C   0  0  0  0  0  0  0  0  0  0  0  0
   -1.6640   17.7850   -5.6510 C   0  0  0  0  0  0  0  0  0  0  0  0
    0.6600   17.0560   -5.5880 C   0  0  0  0  0  0  0  0  0  0  0  0
    0.5710   13.0550   -1.4600 O   0  0  0  0  0  0  0  0  0  0  0  0
    0.3690   11.6640   -3.2100 O   0  0  0  0  0  0  0  0  0  0  0  0
   -0.3370   17.9040   -6.0870 C   0  0  0  0  0  0  0  0  0  0  0  0
  1  2  1  0
  2  3  1  0
  3  4  2  0
  3  5  1  0
  5  6  1  0
  6  7  2  0
  6  8  1  0
  7  9  1  0
  8 10  2  0
  9 11  2  0
 10 11  1  0
 11 12  1  0
 12 13  2  0
 12 14  1  0
 15 14  1  6
 15 16  1  0
 15 17  1  0
 16 18  2  0
 16 19  1  0
 17 20  1  0
 19 20  1  0
 17 21  1  1
 18 22  1  0
 19 23  2  0
 21 24  2  0
 21 25  1  0
 22 26  2  0
 23 26  1  0
M  END
>  <original SMILES>  (6) 
COC(=O)NC1=CC=C(C(=O)NC2C3=CC=CC=C3CC2C(=O)O)C=C1

>  <N_diff_atoms>  (6) 
-4

>  <ref_pdb>  (6) 
x0104_0

>  <LE>  (6) 
-0.404732

>  <%Rank>  (6) 
33.333333

>  <disregarded>  (6) 


>  <∆∆G>  (6) 
-10.927762

>  <submitter_email>  (6) 
nan

>  <regarded>  (6) 
mac-x0213,mac-x0398

>  <ref_mols>  (6) 
x0104_0

>  <submitter_institution>  (6) 
nan

>  <N_hits>  (6) 
2

>  <comRMSD>  (6) 
0.49217

>  <submitter_name>  (6) 
nan

>  <ref_url>  (6) 
nan

>  <method>  (6) 
nan

>  <N_constrained_atoms>  (6) 
23

>  <generation_date>  (6) 
nan

$$$$
m-272610-18205366-18219660
     RDKit          3D

 26 28  0  0  0  0  0  0  0  0999 V2000
   -7.6250   15.7210    4.5800 C   0  0  0  0  0  0  0  0  0  0  0  0
   -8.1980   14.8080    3.6200 N   0  0  0  0  0  0  0  0  0  0  0  0
   -7.7970   14.8970    2.2980 C   0  0  0  0  0  0  0  0  0  0  0  0
   -8.6020   14.9890    1.3790 O   0  0  0  0  0  0  0  0  0  0  0  0
   -6.4160   14.8750    2.1960 N   0  0  0  0  0  0  0  0  0  0  0  0
   -5.6190   14.9420    1.0340 C   0  0  0  0  0  0  0  0  0  0  0  0
   -6.2700   15.0620   -0.2000 C   0  0  0  0  0  0  0  0  0  0  0  0
   -4.2200   14.8930    1.0610 C   0  0  0  0  0  0  0  0  0  0  0  0
   -5.5400   15.1280   -1.3840 C   0  0  0  0  0  0  0  0  0  0  0  0
   -3.4840   14.9560   -0.1250 C   0  0  0  0  0  0  0  0  0  0  0  0
   -4.1460   15.0690   -1.3490 C   0  0  0  0  0  0  0  0  0  0  0  0
   -3.4340   15.1250   -2.6440 C   0  0  0  0  0  0  0  0  0  0  0  0
   -4.0280   15.5150   -3.6360 O   0  0  0  0  0  0  0  0  0  0  0  0
   -2.1290   14.6920   -2.6680 N   0  0  0  0  0  0  0  0  0  0  0  0
   -1.5120   14.4380   -3.9510 C   0  0  1  0  0  0  0  0  0  0  0  0
   -1.2890   15.7660   -4.6100 C   0  0  0  0  0  0  0  0  0  0  0  0
   -0.0710   13.8740   -3.8830 C   0  0  1  0  0  0  0  0  0  0  0  0
   -2.2370   16.5860   -5.2060 C   0  0  0  0  0  0  0  0  0  0  0  0
    0.0560   16.1360   -4.5630 C   0  0  0  0  0  0  0  0  0  0  0  0
    0.8790   15.0900   -3.8780 C   0  0  0  0  0  0  0  0  0  0  0  0
    0.1950   12.9650   -2.7050 C   0  0  0  0  0  0  0  0  0  0  0  0
   -1.8200   17.7950   -5.7560 C   0  0  0  0  0  0  0  0  0  0  0  0
    0.4770   17.3360   -5.1060 C   0  0  0  0  0  0  0  0  0  0  0  0
    0.6660   13.2710   -1.6290 O   0  0  0  0  0  0  0  0  0  0  0  0
   -0.1330   11.6710   -2.9300 O   0  0  0  0  0  0  0  0  0  0  0  0
   -0.4700   18.1680   -5.7040 C   0  0  0  0  0  0  0  0  0  0  0  0
  1  2  1  0
  2  3  1  0
  3  4  2  0
  3  5  1  0
  5  6  1  0
  6  7  2  0
  6  8  1  0
  7  9  1  0
  8 10  2  0
  9 11  2  0
 10 11  1  0
 11 12  1  0
 12 13  2  0
 12 14  1  0
 15 14  1  1
 15 16  1  0
 15 17  1  0
 16 18  2  0
 16 19  1  0
 17 20  1  0
 19 20  1  0
 17 21  1  1
 18 22  1  0
 19 23  2  0
 21 24  2  0
 21 25  1  0
 22 26  2  0
 23 26  1  0
M  END
>  <original SMILES>  (7) 
CNC(=O)NC1=CC=C(C(=O)NC2C3=CC=CC=C3CC2C(=O)O)C=C1

>  <N_diff_atoms>  (7) 
-5

>  <ref_pdb>  (7) 
x0104_0

>  <LE>  (7) 
-0.324284

>  <%Rank>  (7) 
40.0

>  <disregarded>  (7) 


>  <∆∆G>  (7) 
-9.079964

>  <submitter_email>  (7) 
nan

>  <regarded>  (7) 
mac-x0213,mac-x0398

>  <ref_mols>  (7) 
x0104_0

>  <submitter_institution>  (7) 
nan

>  <N_hits>  (7) 
2

>  <comRMSD>  (7) 
0.429568

>  <submitter_name>  (7) 
nan

>  <ref_url>  (7) 
nan

>  <method>  (7) 
nan

>  <N_constrained_atoms>  (7) 
23

>  <generation_date>  (7) 
nan

$$$$
m-272610-18205366-18208686
     RDKit          3D

 28 31  0  0  0  0  0  0  0  0999 V2000
   -4.2580   15.4300    3.7340 O   0  0  0  0  0  0  0  0  0  0  0  0
   -5.4400   15.2050    3.4640 C   0  0  0  0  0  0  0  0  0  0  0  0
   -5.9470   14.7090    2.2810 N   0  0  0  0  0  0  0  0  0  0  0  0
   -6.4970   15.4320    4.3340 N   0  0  0  0  0  0  0  0  0  0  0  0
   -5.3750   14.7850    0.9980 C   0  0  0  0  0  0  0  0  0  0  0  0
   -7.2110   14.3610    4.9560 C   0  0  0  0  0  0  0  0  0  0  0  0
   -3.9830   14.6640    0.8920 C   0  0  0  0  0  0  0  0  0  0  0  0
   -6.1270   14.9710   -0.1690 C   0  0  0  0  0  0  0  0  0  0  0  0
   -7.6320   14.4610    6.4010 C   0  0  0  0  0  0  0  0  0  0  0  0
   -8.6650   14.5350    5.3110 C   0  0  0  0  0  0  0  0  0  0  0  0
   -3.3530   14.7140   -0.3610 C   0  0  0  0  0  0  0  0  0  0  0  0
   -5.5010   15.0220   -1.4150 C   0  0  0  0  0  0  0  0  0  0  0  0
   -4.1150   14.8870   -1.5230 C   0  0  0  0  0  0  0  0  0  0  0  0
   -3.5430   14.9290   -2.8980 C   0  0  0  0  0  0  0  0  0  0  0  0
   -4.1130   15.5490   -3.7590 O   0  0  0  0  0  0  0  0  0  0  0  0
   -2.4020   14.2150   -3.1750 N   0  0  0  0  0  0  0  0  0  0  0  0
   -1.1230   14.8560   -3.2320 C   0  0  2  0  0  0  0  0  0  0  0  0
   -1.0560   15.9660   -4.2390 C   0  0  0  0  0  0  0  0  0  0  0  0
    0.0380   14.0030   -3.7660 C   0  0  1  0  0  0  0  0  0  0  0  0
   -2.0630   16.7840   -4.7380 C   0  0  0  0  0  0  0  0  0  0  0  0
    0.2650   16.1120   -4.6560 C   0  0  0  0  0  0  0  0  0  0  0  0
    1.1230   15.0730   -3.9840 C   0  0  0  0  0  0  0  0  0  0  0  0
    0.4730   12.9050   -2.8390 C   0  0  0  0  0  0  0  0  0  0  0  0
   -1.7220   17.7740   -5.6540 C   0  0  0  0  0  0  0  0  0  0  0  0
    0.6140   17.0960   -5.5610 C   0  0  0  0  0  0  0  0  0  0  0  0
    0.9940   13.0710   -1.7520 O   0  0  0  0  0  0  0  0  0  0  0  0
    0.2450   11.6610   -3.2950 O   0  0  0  0  0  0  0  0  0  0  0  0
   -0.3900   17.9340   -6.0580 C   0  0  0  0  0  0  0  0  0  0  0  0
  1  2  2  0
  2  3  1  0
  2  4  1  0
  3  5  1  0
  4  6  1  0
  5  7  2  0
  5  8  1  0
  6  9  1  0
  6 10  1  0
  9 10  1  0
  7 11  1  0
  8 12  2  0
 11 13  2  0
 12 13  1  0
 13 14  1  0
 14 15  2  0
 14 16  1  0
 17 16  1  6
 17 18  1  0
 17 19  1  0
 18 20  2  0
 18 21  1  0
 19 22  1  0
 21 22  1  0
 19 23  1  1
 20 24  1  0
 21 25  2  0
 23 26  2  0
 23 27  1  0
 24 28  2  0
 25 28  1  0
M  END
>  <original SMILES>  (8) 
O=C(NC1=CC=C(C(=O)NC2C3=CC=CC=C3CC2C(=O)O)C=C1)NC1CC1

>  <N_diff_atoms>  (8) 
-6

>  <ref_pdb>  (8) 
x0104_0

>  <LE>  (8) 
-0.363833

>  <%Rank>  (8) 
46.666667

>  <disregarded>  (8) 


>  <∆∆G>  (8) 
-10.551143

>  <submitter_email>  (8) 
nan

>  <regarded>  (8) 
mac-x0213,mac-x0398

>  <ref_mols>  (8) 
x0104_0

>  <submitter_institution>  (8) 
nan

>  <N_hits>  (8) 
2

>  <comRMSD>  (8) 
0.482938

>  <submitter_name>  (8) 
nan

>  <ref_url>  (8) 
nan

>  <method>  (8) 
nan

>  <N_constrained_atoms>  (8) 
23

>  <generation_date>  (8) 
nan

$$$$
m-272610-18205366-17768894
     RDKit          3D

 27 30  0  0  0  0  0  0  0  0999 V2000
   -4.0370   15.5590   -3.8090 O   0  0  0  0  0  0  0  0  0  0  0  0
   -3.5770   14.9410   -2.8760 C   0  0  0  0  0  0  0  0  0  0  0  0
   -2.4310   14.2010   -3.0080 N   0  0  0  0  0  0  0  0  0  0  0  0
   -4.2910   14.9390   -1.5640 C   0  0  0  0  0  0  0  0  0  0  0  0
   -1.1380   14.8240   -3.1350 C   0  0  2  0  0  0  0  0  0  0  0  0
   -5.6800   15.0490   -1.5270 C   0  0  0  0  0  0  0  0  0  0  0  0
   -3.5810   14.8190   -0.3620 C   0  0  0  0  0  0  0  0  0  0  0  0
   -1.0940   15.9110   -4.1850 C   0  0  0  0  0  0  0  0  0  0  0  0
   -0.0180   13.9420   -3.6830 C   0  0  1  0  0  0  0  0  0  0  0  0
   -6.3660   15.0250   -0.3100 C   0  0  0  0  0  0  0  0  0  0  0  0
   -4.2720   14.7990    0.8590 C   0  0  0  0  0  0  0  0  0  0  0  0
   -2.1030   16.7170   -4.7000 C   0  0  0  0  0  0  0  0  0  0  0  0
    0.2240   16.0430   -4.6150 C   0  0  0  0  0  0  0  0  0  0  0  0
    1.0780   15.0160   -3.9180 C   0  0  0  0  0  0  0  0  0  0  0  0
    0.4330   12.8660   -2.7150 C   0  0  0  0  0  0  0  0  0  0  0  0
   -5.6750   14.8950    0.8930 C   0  0  0  0  0  0  0  0  0  0  0  0
   -1.7600   17.6840   -5.6450 C   0  0  0  0  0  0  0  0  0  0  0  0
    0.5770   17.0000   -5.5450 C   0  0  0  0  0  0  0  0  0  0  0  0
    1.1200   13.0390   -1.7290 O   0  0  0  0  0  0  0  0  0  0  0  0
    0.0180   11.6130   -2.9880 O   0  0  0  0  0  0  0  0  0  0  0  0
   -6.3000   14.8560    2.1620 N   0  0  0  0  0  0  0  0  0  0  0  0
   -0.4270   17.8280   -6.0580 C   0  0  0  0  0  0  0  0  0  0  0  0
   -7.6400   14.9600    2.4970 C   0  0  0  0  0  0  0  0  0  0  0  0
   -8.6130   14.8090    1.7610 O   0  0  0  0  0  0  0  0  0  0  0  0
   -7.9000   15.3120    3.9360 C   0  0  0  0  0  0  0  0  0  0  0  0
   -9.2160   15.0730    4.6350 C   0  0  0  0  0  0  0  0  0  0  0  0
   -8.7610   16.4770    4.3580 C   0  0  0  0  0  0  0  0  0  0  0  0
  1  2  2  0
  2  3  1  0
  2  4  1  0
  5  3  1  6
  4  6  2  0
  4  7  1  0
  5  8  1  0
  5  9  1  0
  6 10  1  0
  7 11  2  0
  8 12  2  0
  8 13  1  0
  9 14  1  0
 13 14  1  0
  9 15  1  1
 10 16  2  0
 11 16  1  0
 12 17  1  0
 13 18  2  0
 15 19  2  0
 15 20  1  0
 16 21  1  0
 17 22  2  0
 18 22  1  0
 21 23  1  0
 23 24  2  0
 23 25  1  0
 25 26  1  0
 25 27  1  0
 26 27  1  0
M  END
>  <original SMILES>  (9) 
O=C(NC1C2=CC=CC=C2CC1C(=O)O)C1=CC=C(NC(=O)C2CC2)C=C1

>  <N_diff_atoms>  (9) 
-6

>  <ref_pdb>  (9) 
x0104_0

>  <LE>  (9) 
-0.29058

>  <%Rank>  (9) 
53.333333

>  <disregarded>  (9) 


>  <∆∆G>  (9) 
-8.426821

>  <submitter_email>  (9) 
nan

>  <regarded>  (9) 
mac-x0213,mac-x0398

>  <ref_mols>  (9) 
x0104_0

>  <submitter_institution>  (9) 
nan

>  <N_hits>  (9) 
2

>  <comRMSD>  (9) 
0.489135

>  <submitter_name>  (9) 
nan

>  <ref_url>  (9) 
nan

>  <method>  (9) 
nan

>  <N_constrained_atoms>  (9) 
23

>  <generation_date>  (9) 
nan

$$$$
s-188690-16712282-7316554
     RDKit          3D

 29 32  0  0  0  0  0  0  0  0999 V2000
   -4.4040   15.3960    3.8280 O   0  0  0  0  0  0  0  0  0  0  0  0
   -5.5990   15.1900    3.5710 C   0  0  0  0  0  0  0  0  0  0  0  0
   -6.1100   14.7840    2.3570 N   0  0  0  0  0  0  0  0  0  0  0  0
   -6.6390   15.3390    4.4760 N   0  0  0  0  0  0  0  0  0  0  0  0
   -5.4210   14.8580    1.1380 C   0  0  0  0  0  0  0  0  0  0  0  0
   -7.5110   14.2620    4.8340 C   0  0  0  0  0  0  0  0  0  0  0  0
   -4.0360   14.8000    1.0740 C   0  0  0  0  0  0  0  0  0  0  0  0
   -6.1630   14.9950   -0.0520 C   0  0  0  0  0  0  0  0  0  0  0  0
   -7.4410   12.9460    4.1190 C   0  0  0  0  0  0  0  0  0  0  0  0
   -8.6170   13.8480    3.9070 C   0  0  0  0  0  0  0  0  0  0  0  0
   -3.3900   14.8690   -0.1520 C   0  0  0  0  0  0  0  0  0  0  0  0
   -5.5180   15.0660   -1.2850 C   0  0  0  0  0  0  0  0  0  0  0  0
   -4.1330   14.9960   -1.3230 C   0  0  0  0  0  0  0  0  0  0  0  0
   -3.4550   15.0490   -2.6160 C   0  0  0  0  0  0  0  0  0  0  0  0
   -4.0370   15.4120   -3.6250 O   0  0  0  0  0  0  0  0  0  0  0  0
   -2.1480   14.6390   -2.6810 N   0  0  0  0  0  0  0  0  0  0  0  0
   -1.4890   14.4610   -3.9540 C   0  0  1  0  0  0  0  0  0  0  0  0
   -1.3470   15.7790   -4.6310 C   0  0  0  0  0  0  0  0  0  0  0  0
   -0.0450   13.9380   -3.9170 C   0  0  1  0  0  0  0  0  0  0  0  0
   -0.0250   16.2410   -4.5390 C   0  0  0  0  0  0  0  0  0  0  0  0
    0.8190   15.2300   -3.8020 C   0  0  0  0  0  0  0  0  0  0  0  0
    0.3340   12.9400   -2.8180 C   0  0  0  0  0  0  0  0  0  0  0  0
   -2.3350   16.5140   -5.2730 C   0  0  0  0  0  0  0  0  0  0  0  0
    0.9520   13.2560   -1.8150 O   0  0  0  0  0  0  0  0  0  0  0  0
   -0.0530   11.6550   -2.9950 O   0  0  0  0  0  0  0  0  0  0  0  0
    0.2970   17.4730   -5.0940 C   0  0  0  0  0  0  0  0  0  0  0  0
   -1.9910   17.7410   -5.8280 C   0  0  0  0  0  0  0  0  0  0  0  0
    1.5180   18.0530   -5.0710 O   0  0  0  0  0  0  0  0  0  0  0  0
   -0.6820   18.2160   -5.7350 C   0  0  0  0  0  0  0  0  0  0  0  0
  1  2  2  0
  2  3  1  0
  2  4  1  0
  3  5  1  0
  4  6  1  0
  5  7  2  0
  5  8  1  0
  6  9  1  0
  6 10  1  0
  9 10  1  0
  7 11  1  0
  8 12  2  0
 11 13  2  0
 12 13  1  0
 13 14  1  0
 14 15  2  0
 14 16  1  0
 17 16  1  1
 17 18  1  0
 17 19  1  0
 18 20  2  0
 19 21  1  0
 20 21  1  0
 19 22  1  1
 18 23  1  0
 22 24  2  0
 22 25  1  0
 20 26  1  0
 23 27  2  0
 26 28  1  0
 26 29  2  0
 27 29  1  0
M  END
>  <original SMILES>  (10) 
O=C(NC1=CC=C(C(=O)NC2C3=C(CC2C(=O)O)C(O)=CC=C3)C=C1)NC1CC1

>  <N_diff_atoms>  (10) 
-8

>  <ref_pdb>  (10) 
x0104_0

>  <LE>  (10) 
-0.301897

>  <%Rank>  (10) 
60.0

>  <disregarded>  (10) 


>  <∆∆G>  (10) 
-9.358804

>  <submitter_email>  (10) 
nan

>  <regarded>  (10) 
mac-x0213,mac-x0398

>  <ref_mols>  (10) 
x0104_0

>  <submitter_institution>  (10) 
nan

>  <N_hits>  (10) 
2

>  <comRMSD>  (10) 
0.45208

>  <submitter_name>  (10) 
nan

>  <ref_url>  (10) 
nan

>  <method>  (10) 
nan

>  <N_constrained_atoms>  (10) 
23

>  <generation_date>  (10) 
nan

$$$$
s-34-13231222-13910464
     RDKit          3D

 18 20  0  0  0  0  0  0  0  0999 V2000
   -4.3480   16.1710   -6.9570 C   0  0  0  0  0  0  0  0  0  0  0  0
   -3.1730   16.2450   -6.0470 C   0  0  0  0  0  0  0  0  0  0  0  0
   -2.8940   15.3360   -5.1420 N   0  0  0  0  0  0  0  0  0  0  0  0
   -2.0750   17.5720   -6.1210 S   0  0  0  0  0  0  0  0  0  0  0  0
   -1.7460   15.6790   -4.4430 C   0  0  0  0  0  0  0  0  0  0  0  0
   -1.1620   16.8710   -4.8530 C   0  0  0  0  0  0  0  0  0  0  0  0
   -1.2780   14.7650   -3.3520 C   0  0  0  0  0  0  0  0  0  0  0  0
   -2.2130   14.8960   -2.2480 N   0  0  0  0  0  0  0  0  0  0  0  0
   -3.5370   15.2240   -2.3970 C   0  0  0  0  0  0  0  0  0  0  0  0
   -1.9750   14.7340   -0.8980 C   0  0  0  0  0  0  0  0  0  0  0  0
   -4.1640   15.2940   -1.2470 N   0  0  0  0  0  0  0  0  0  0  0  0
   -3.2060   14.9960   -0.3070 C   0  0  0  0  0  0  0  0  0  0  0  0
   -0.8300   14.4070   -0.2560 N   0  0  0  0  0  0  0  0  0  0  0  0
   -3.2570   14.9180    1.0890 C   0  0  0  0  0  0  0  0  0  0  0  0
   -1.0120   14.3580    1.0870 C   0  0  0  0  0  0  0  0  0  0  0  0
   -4.4010   15.1610    1.8310 N   0  0  0  0  0  0  0  0  0  0  0  0
   -2.1360   14.5940    1.7550 N   0  0  0  0  0  0  0  0  0  0  0  0
    0.0460   14.0380    1.9140 N   0  0  0  0  0  0  0  0  0  0  0  0
  1  2  1  0
  2  3  2  0
  2  4  1  0
  3  5  1  0
  4  6  1  0
  5  6  2  0
  5  7  1  0
  7  8  1  0
  8  9  1  0
  8 10  1  0
  9 11  2  0
 10 12  2  0
 11 12  1  0
 10 13  1  0
 12 14  1  0
 13 15  2  0
 14 16  1  0
 14 17  2  0
 15 17  1  0
 15 18  1  0
M  END
>  <original SMILES>  (11) 
CC1=NC(CN2C=NC3=C(N)N=C(N)N=C32)=CS1

>  <N_diff_atoms>  (11) 
-6

>  <ref_pdb>  (11) 
x0104_0

>  <LE>  (11) 
-0.548458

>  <%Rank>  (11) 
66.666667

>  <disregarded>  (11) 
mac-x0159

>  <∆∆G>  (11) 
-9.872247

>  <submitter_email>  (11) 
nan

>  <regarded>  (11) 
mac-x0138

>  <ref_mols>  (11) 
x0104_0

>  <submitter_institution>  (11) 
nan

>  <N_hits>  (11) 
1

>  <comRMSD>  (11) 
0.290138

>  <submitter_name>  (11) 
nan

>  <ref_url>  (11) 
nan

>  <method>  (11) 
nan

>  <N_constrained_atoms>  (11) 
12

>  <generation_date>  (11) 
nan

$$$$
s-11-2990918-53482
     RDKit          3D

 20 22  0  0  0  0  0  0  0  0999 V2000
   -9.1750   17.3660    3.9770 O   0  0  0  0  0  0  0  0  0  0  0  0
   -8.7290   16.6760    4.8750 C   0  0  0  0  0  0  0  0  0  0  0  0
   -7.7500   15.6920    4.7630 N   0  0  0  0  0  0  0  0  0  0  0  0
   -9.2660   16.8370    6.2190 C   0  0  0  0  0  0  0  0  0  0  0  0
   -7.2700   15.3090    3.5110 C   0  0  0  0  0  0  0  0  0  0  0  0
  -10.1560   17.8480    6.5280 C   0  0  0  0  0  0  0  0  0  0  0  0
   -8.8840   15.9530    7.2210 C   0  0  0  0  0  0  0  0  0  0  0  0
   -6.0140   15.3160    3.0520 N   0  0  0  0  0  0  0  0  0  0  0  0
   -8.2700   14.9510    2.6890 N   0  0  0  0  0  0  0  0  0  0  0  0
  -10.6290   17.9260    7.8210 C   0  0  0  0  0  0  0  0  0  0  0  0
   -9.3330   16.0130    8.4930 N   0  0  0  0  0  0  0  0  0  0  0  0
   -5.7920   15.0170    1.6630 C   0  0  0  0  0  0  0  0  0  0  0  0
   -7.9830   14.0680    1.7100 C   0  0  0  0  0  0  0  0  0  0  0  0
  -10.2020   17.0060    8.7580 C   0  0  0  0  0  0  0  0  0  0  0  0
   -4.6140   15.3600    0.9620 C   0  0  0  0  0  0  0  0  0  0  0  0
   -6.7910   14.3980    0.9510 C   0  0  0  0  0  0  0  0  0  0  0  0
   -8.6750   13.0820    1.4830 O   0  0  0  0  0  0  0  0  0  0  0  0
   -4.4950   15.0760   -0.4130 C   0  0  0  0  0  0  0  0  0  0  0  0
   -6.6980   14.1090   -0.3980 C   0  0  0  0  0  0  0  0  0  0  0  0
   -5.5460   14.4510   -1.0890 C   0  0  0  0  0  0  0  0  0  0  0  0
  1  2  2  0
  2  3  1  0
  2  4  1  0
  3  5  1  0
  4  6  2  0
  4  7  1  0
  5  8  2  0
  5  9  1  0
  6 10  1  0
  7 11  2  0
  8 12  1  0
  9 13  1  0
 10 14  2  0
 11 14  1  0
 12 15  2  0
 12 16  1  0
 13 16  1  0
 13 17  2  0
 15 18  1  0
 16 19  2  0
 18 20  2  0
 19 20  1  0
M  END
>  <original SMILES>  (12) 
O=C(NC1=NC2=CC=CC=C2C(=O)[NH]1)C3=CC=CN=C3

>  <N_diff_atoms>  (12) 
-6

>  <ref_pdb>  (12) 
x0104_0

>  <LE>  (12) 
-0.080316

>  <%Rank>  (12) 
73.333333

>  <disregarded>  (12) 
mac-x0341

>  <∆∆G>  (12) 
-1.766954

>  <submitter_email>  (12) 
nan

>  <regarded>  (12) 
diamond-x0128_0_A

>  <ref_mols>  (12) 
x0128_0_A

>  <submitter_institution>  (12) 
nan

>  <N_hits>  (12) 
1

>  <comRMSD>  (12) 
1.197049

>  <submitter_name>  (12) 
nan

>  <ref_url>  (12) 
nan

>  <method>  (12) 
nan

>  <N_constrained_atoms>  (12) 
16

>  <generation_date>  (12) 
nan

$$$$
s-22-17541880-294410
     RDKit          3D

 21 23  0  0  0  0  0  0  0  0999 V2000
   -8.9530   14.3480    1.6990 O   0  0  0  0  0  0  0  0  0  0  0  0
   -8.0870   14.2970    2.5750 C   0  0  0  0  0  0  0  0  0  0  0  0
   -8.3820   13.8200    3.9910 C   0  0  0  0  0  0  0  0  0  0  0  0
   -6.7710   14.6660    2.3890 N   0  0  0  0  0  0  0  0  0  0  0  0
   -8.1480   12.3460    4.2510 C   0  0  0  0  0  0  0  0  0  0  0  0
   -6.0790   14.8260    1.2290 C   0  0  0  0  0  0  0  0  0  0  0  0
   -8.7520   11.3630    3.4610 C   0  0  0  0  0  0  0  0  0  0  0  0
   -7.3170   11.9340    5.3010 C   0  0  0  0  0  0  0  0  0  0  0  0
   -4.8160   15.0060    1.3850 N   0  0  0  0  0  0  0  0  0  0  0  0
   -6.6990   14.8050    0.0200 N   0  0  0  0  0  0  0  0  0  0  0  0
   -8.5050   10.0290    3.7530 C   0  0  0  0  0  0  0  0  0  0  0  0
   -7.1310   10.5780    5.5140 C   0  0  0  0  0  0  0  0  0  0  0  0
   -4.0200   15.1710    0.2550 C   0  0  0  0  0  0  0  0  0  0  0  0
   -6.0250   15.0700   -1.1510 C   0  0  0  0  0  0  0  0  0  0  0  0
   -7.7110    9.6160    4.7640 N   0  0  0  0  0  0  0  0  0  0  0  0
   -2.6390   15.2950    0.4160 C   0  0  0  0  0  0  0  0  0  0  0  0
   -4.5600   15.2090   -1.0260 C   0  0  0  0  0  0  0  0  0  0  0  0
   -6.5840   15.1740   -2.2310 O   0  0  0  0  0  0  0  0  0  0  0  0
   -1.8140   15.4600   -0.6980 C   0  0  0  0  0  0  0  0  0  0  0  0
   -3.7470   15.3730   -2.1470 C   0  0  0  0  0  0  0  0  0  0  0  0
   -2.3680   15.4970   -1.9800 C   0  0  0  0  0  0  0  0  0  0  0  0
  1  2  2  0
  2  3  1  0
  2  4  1  0
  3  5  1  0
  4  6  1  0
  5  7  2  0
  5  8  1  0
  6  9  2  0
  6 10  1  0
  7 11  1  0
  8 12  2  0
  9 13  1  0
 10 14  1  0
 11 15  2  0
 12 15  1  0
 13 16  2  0
 13 17  1  0
 14 17  1  0
 14 18  2  0
 16 19  1  0
 17 20  2  0
 19 21  2  0
 20 21  1  0
M  END
>  <original SMILES>  (13) 
O=C(CC1=CC=NC=C1)NC2=NC3=CC=CC=C3C(=O)[NH]2

>  <N_diff_atoms>  (13) 
-9

>  <ref_pdb>  (13) 
x0104_0

>  <LE>  (13) 
-0.234985

>  <%Rank>  (13) 
80.0

>  <disregarded>  (13) 
diamond-x0128_0_A

>  <∆∆G>  (13) 
-4.934683

>  <submitter_email>  (13) 
nan

>  <regarded>  (13) 
mac-x0341

>  <ref_mols>  (13) 
x0104_0

>  <submitter_institution>  (13) 
nan

>  <N_hits>  (13) 
1

>  <comRMSD>  (13) 
0.257986

>  <submitter_name>  (13) 
nan

>  <ref_url>  (13) 
nan

>  <method>  (13) 
nan

>  <N_constrained_atoms>  (13) 
12

>  <generation_date>  (13) 
nan

$$$$
s-34-13231222-1282712-
     RDKit          3D

 23 26  0  0  0  0  0  0  0  0999 V2000
    0.8270    8.2600   -7.9990 C   0  0  0  0  0  0  0  0  0  0  0  0
    0.0050    8.8160   -6.9090 C   0  0  0  0  0  0  0  0  0  0  0  0
   -0.6700    8.2590   -5.8540 C   0  0  0  0  0  0  0  0  0  0  0  0
   -0.1440   10.1700   -6.8980 O   0  0  0  0  0  0  0  0  0  0  0  0
   -1.2650    9.3370   -5.1590 C   0  0  0  0  0  0  0  0  0  0  0  0
   -0.9280   10.5060   -5.8200 C   0  0  0  0  0  0  0  0  0  0  0  0
   -1.3090   11.8510   -5.4800 C   0  0  0  0  0  0  0  0  0  0  0  0
   -0.8080   12.5050   -4.4470 N   0  0  0  0  0  0  0  0  0  0  0  0
   -2.4690   12.7220   -6.3990 S   0  0  0  0  0  0  0  0  0  0  0  0
   -1.3720   13.7760   -4.3610 C   0  0  0  0  0  0  0  0  0  0  0  0
   -2.2970   14.0620   -5.3480 C   0  0  0  0  0  0  0  0  0  0  0  0
   -0.9480   14.6840   -3.2570 C   0  0  0  0  0  0  0  0  0  0  0  0
   -2.0010   14.8670   -2.2740 N   0  0  0  0  0  0  0  0  0  0  0  0
   -3.3120   15.1900   -2.5260 C   0  0  0  0  0  0  0  0  0  0  0  0
   -1.8540   14.7540   -0.9140 C   0  0  0  0  0  0  0  0  0  0  0  0
   -4.0130   15.2960   -1.4140 N   0  0  0  0  0  0  0  0  0  0  0  0
   -3.1130   15.0270   -0.4040 C   0  0  0  0  0  0  0  0  0  0  0  0
   -0.7390   14.4510   -0.2140 N   0  0  0  0  0  0  0  0  0  0  0  0
   -3.2320   14.9870    0.9910 C   0  0  0  0  0  0  0  0  0  0  0  0
   -0.9750   14.4300    1.1160 C   0  0  0  0  0  0  0  0  0  0  0  0
   -4.4220   15.2530    1.6510 N   0  0  0  0  0  0  0  0  0  0  0  0
   -2.1350   14.6780    1.7240 N   0  0  0  0  0  0  0  0  0  0  0  0
    0.0580   14.1240    1.9810 N   0  0  0  0  0  0  0  0  0  0  0  0
  1  2  1  0
  2  3  2  0
  2  4  1  0
  3  5  1  0
  4  6  1  0
  5  6  2  0
  6  7  1  0
  7  8  2  0
  7  9  1  0
  8 10  1  0
  9 11  1  0
 10 11  2  0
 10 12  1  0
 12 13  1  0
 13 14  1  0
 13 15  1  0
 14 16  2  0
 15 17  2  0
 16 17  1  0
 15 18  1  0
 17 19  1  0
 18 20  2  0
 19 21  1  0
 19 22  2  0
 20 22  1  0
 20 23  1  0
M  END
>  <original SMILES>  (14) 
CC1=CC=C(C2=NC(CN3C=NC4=C(N)N=C(N)N=C43)=CS2)O1

>  <N_diff_atoms>  (14) 
-11

>  <ref_pdb>  (14) 
x0104_0

>  <LE>  (14) 
-0.491356

>  <%Rank>  (14) 
86.666667

>  <disregarded>  (14) 
mac-x0161

>  <∆∆G>  (14) 
-11.301191

>  <submitter_email>  (14) 
nan

>  <regarded>  (14) 
mac-x0138

>  <ref_mols>  (14) 
x0104_0

>  <submitter_institution>  (14) 
nan

>  <N_hits>  (14) 
1

>  <comRMSD>  (14) 
0.279574

>  <submitter_name>  (14) 
nan

>  <ref_url>  (14) 
nan

>  <method>  (14) 
nan

>  <N_constrained_atoms>  (14) 
12

>  <generation_date>  (14) 
nan

$$$$
s-11-11560436-10336618
     RDKit          3D

 24 27  0  0  0  0  0  0  0  0999 V2000
   -0.3920   14.8020   -1.4190 O   0  0  0  0  0  0  0  0  0  0  0  0
   -1.6090   14.6410   -1.4660 C   0  0  0  0  0  0  0  0  0  0  0  0
   -2.3230   14.3400   -2.7600 C   0  0  0  0  0  0  0  0  0  0  0  0
   -2.3420   14.7470   -0.3210 N   0  0  0  0  0  0  0  0  0  0  0  0
   -3.8460   15.2820   -2.9720 S   0  0  0  0  0  0  0  0  0  0  0  0
   -3.7410   14.8030   -0.2430 C   0  0  0  0  0  0  0  0  0  0  0  0
   -4.5520   15.0350   -1.3580 C   0  0  0  0  0  0  0  0  0  0  0  0
   -4.3230   14.6120    1.0070 C   0  0  0  0  0  0  0  0  0  0  0  0
   -5.9540   15.0730   -1.2140 C   0  0  0  0  0  0  0  0  0  0  0  0
   -5.7200   14.6440    1.1560 C   0  0  0  0  0  0  0  0  0  0  0  0
   -6.5510   14.8720    0.0490 C   0  0  0  0  0  0  0  0  0  0  0  0
   -8.0440   14.8910    0.2540 C   0  0  0  0  0  0  0  0  0  0  0  0
   -8.8000   14.3840   -0.5560 O   0  0  0  0  0  0  0  0  0  0  0  0
   -8.4380   15.5130    1.4150 O   0  0  0  0  0  0  0  0  0  0  0  0
   -9.7370   15.1070    1.8780 C   0  0  2  0  0  0  0  0  0  0  0  0
  -10.8440   16.0540    1.4920 C   0  0  0  0  0  0  0  0  0  0  0  0
   -9.8970   15.0790    3.4090 C   0  0  1  0  0  0  0  0  0  0  0  0
  -10.9830   16.7950    0.3300 C   0  0  0  0  0  0  0  0  0  0  0  0
  -11.8110   16.1040    2.5050 C   0  0  0  0  0  0  0  0  0  0  0  0
  -11.4130   15.2480    3.6700 C   0  0  0  0  0  0  0  0  0  0  0  0
   -9.5320   13.8400    3.8530 F   0  0  0  0  0  0  0  0  0  0  0  0
  -12.1270   17.5840    0.1810 C   0  0  0  0  0  0  0  0  0  0  0  0
  -12.9490   16.8740    2.3590 C   0  0  0  0  0  0  0  0  0  0  0  0
  -13.1060   17.6190    1.1860 C   0  0  0  0  0  0  0  0  0  0  0  0
  1  2  2  0
  2  3  1  0
  2  4  1  0
  3  5  1  0
  4  6  1  0
  5  7  1  0
  6  7  2  0
  6  8  1  0
  7  9  1  0
  8 10  2  0
  9 11  2  0
 10 11  1  0
 11 12  1  0
 12 13  2  0
 12 14  1  0
 15 14  1  1
 15 16  1  0
 15 17  1  0
 16 18  2  0
 16 19  1  0
 17 20  1  0
 19 20  1  0
 17 21  1  6
 18 22  1  0
 19 23  2  0
 22 24  2  0
 23 24  1  0
M  END
>  <original SMILES>  (15) 
O=C1CSC2=CC(C(=O)OC3C4=CC=CC=C4CC3F)=CC=C2N1

>  <N_diff_atoms>  (15) 
-13

>  <ref_pdb>  (15) 
x0104_0

>  <LE>  (15) 
-0.181792

>  <%Rank>  (15) 
93.333333

>  <disregarded>  (15) 
mac-x0213

>  <∆∆G>  (15) 
-4.726588

>  <submitter_email>  (15) 
nan

>  <regarded>  (15) 
mac-x0381

>  <ref_mols>  (15) 
x0104_0

>  <submitter_institution>  (15) 
nan

>  <N_hits>  (15) 
1

>  <comRMSD>  (15) 
0.935661

>  <submitter_name>  (15) 
nan

>  <ref_url>  (15) 
nan

>  <method>  (15) 
nan

>  <N_constrained_atoms>  (15) 
12

>  <generation_date>  (15) 
nan

$$$$
m-272610-18205366-9959790
     RDKit          3D

 21 23  0  0  0  0  0  0  0  0999 V2000
    2.4850   12.6320   -2.4730 O   0  0  0  0  0  0  0  0  0  0  0  0
    2.2690   13.8250   -2.2830 C   0  0  0  0  0  0  0  0  0  0  0  0
    1.7360   14.6180   -3.2860 N   0  0  0  0  0  0  0  0  0  0  0  0
    2.5800   14.5070   -0.9940 C   0  0  0  0  0  0  0  0  0  0  0  0
    0.4410   14.3300   -3.8720 C   0  0  2  0  0  0  0  0  0  0  0  0
    1.3910   15.1130   -0.2520 C   0  0  0  0  0  0  0  0  0  0  0  0
    4.0150   14.5340   -0.5450 C   0  0  0  0  0  0  0  0  0  0  0  0
   -0.0950   15.5500   -4.5760 C   0  0  0  0  0  0  0  0  0  0  0  0
   -0.7210   14.0800   -2.8880 C   0  0  1  0  0  0  0  0  0  0  0  0
    1.4550   15.8950    1.0870 C   0  0  0  0  0  0  0  0  0  0  0  0
    4.4310   15.2680    0.7470 C   0  0  0  0  0  0  0  0  0  0  0  0
    0.6040   16.5500   -5.2340 C   0  0  0  0  0  0  0  0  0  0  0  0
   -1.4890   15.5790   -4.4970 C   0  0  0  0  0  0  0  0  0  0  0  0
   -1.9870   14.3890   -3.7260 C   0  0  0  0  0  0  0  0  0  0  0  0
   -0.7980   12.7650   -2.1380 C   0  0  0  0  0  0  0  0  0  0  0  0
    2.9310   16.1770    1.7820 C   0  0  0  0  0  0  0  0  0  0  0  0
   -0.1170   17.5940   -5.8180 C   0  0  0  0  0  0  0  0  0  0  0  0
   -2.2150   16.6050   -5.0750 C   0  0  0  0  0  0  0  0  0  0  0  0
   -0.4460   12.6720   -0.9620 O   0  0  0  0  0  0  0  0  0  0  0  0
   -1.2670   11.6940   -2.8080 O   0  0  0  0  0  0  0  0  0  0  0  0
   -1.5220   17.6220   -5.7400 C   0  0  0  0  0  0  0  0  0  0  0  0
  1  2  2  0
  2  3  1  0
  2  4  1  0
  5  3  1  1
  4  6  2  0
  4  7  1  0
  5  8  1  0
  5  9  1  0
  6 10  1  0
  7 11  2  0
  8 12  2  0
  8 13  1  0
  9 14  1  0
 13 14  1  0
  9 15  1  6
 10 16  2  0
 11 16  1  0
 12 17  1  0
 13 18  2  0
 15 19  2  0
 15 20  1  0
 17 21  2  0
 18 21  1  0
M  END
>  <original SMILES>  (16) 
O=C(NC1C2=CC=CC=C2CC1C(=O)O)C3=CC=CC=C3

>  <N_diff_atoms>  (16) 
-9

>  <ref_pdb>  (16) 
x0104_0

>  <LE>  (16) 
3.459274

>  <%Rank>  (16) 
100.0

>  <disregarded>  (16) 
mac-x0398

>  <∆∆G>  (16) 
72.644762

>  <submitter_email>  (16) 
nan

>  <regarded>  (16) 
mac-x0213

>  <ref_mols>  (16) 
x0104_0

>  <submitter_institution>  (16) 
nan

>  <N_hits>  (16) 
1

>  <comRMSD>  (16) 
0.959524

>  <submitter_name>  (16) 
nan

>  <ref_url>  (16) 
nan

>  <method>  (16) 
nan

>  <N_constrained_atoms>  (16) 
12

>  <generation_date>  (16) 
nan

$$$$
