ver_1.2
     RDKit          2D

  3  2  0  0  0  0  0  0  0  0999 V2000
    2.5981   -0.0000    0.0000 F   0  0  0  0  0  0  0  0  0  0  0  0
    1.2990    0.7500    0.0000 O   0  0  0  0  0  0  0  0  0  0  0  0
    0.0000    0.0000    0.0000 O   0  0  0  0  0  0  0  0  0  0  0  0
  1  2  1  0
  2  3  1  0
M  END
>  <comRMSD>  (1) 
Combined RMSD from the atoms of the fragments that contributed to the position of the followup

>  <ref_mols>  (1) 
all reference molecules

>  <N_hits>  (1) 
Number of hits used

>  <∆∆G>  (1) 
Difference in Gibbs Free energy relative to unbound molecule in kcal/mol (ref2015 scorefxn; negative=Good)

>  <N_diff_atoms>  (1) 
Difference in number of heavy atoms between the merger and the hits (negative: atoms added, positive: atoms merged)

>  <generation_date>  (1) 
2020-10-14

>  <LE>  (1) 
Ligand efficiency (kcal/mol/N_heavy)

>  <N_constrained_atoms>  (1) 
Number of atoms in the submission that were constrained

>  <%Rank>  (1) 
Sorted by 2.0x RSMD (high is bad) + 1.0x ligand efficiency (high is bad) - 2.0x N_constrained_atoms/(20+N_constrained_atoms) + 5.0x N_unconstrained_atoms/N_constrained_atoms

>  <ref_pdb>  (1) 
All ligands were evaluated against the apo of Rosetta-ED-guided-minimised 6WOJ

>  <original SMILES>  (1) 
molecule smiles

>  <regarded>  (1) 
Fragments used for mapping

>  <disregarded>  (1) 
Fragments rejected for mapping

>  <ref_url>  (1) 
https://github.com/matteoferla/NSP3-macrodomain

$$$$
s-11-11560436-10336618
     RDKit          3D

 24 27  0  0  0  0  0  0  0  0999 V2000
   -7.8680   14.7670    3.1050 O   0  0  0  0  0  0  0  0  0  0  0  0
   -7.2370   14.6130    2.0610 C   0  0  0  0  0  0  0  0  0  0  0  0
   -7.9180   14.0730    0.8330 C   0  0  0  0  0  0  0  0  0  0  0  0
   -5.8970   14.9360    1.9650 N   0  0  0  0  0  0  0  0  0  0  0  0
   -7.5520   15.0490   -0.6320 S   0  0  0  0  0  0  0  0  0  0  0  0
   -5.1550   14.9590    0.7720 C   0  0  0  0  0  0  0  0  0  0  0  0
   -5.7860   15.0100   -0.4750 C   0  0  0  0  0  0  0  0  0  0  0  0
   -3.7600   14.9250    0.8440 C   0  0  0  0  0  0  0  0  0  0  0  0
   -5.0470   15.0240   -1.6340 C   0  0  0  0  0  0  0  0  0  0  0  0
   -3.0080   14.9350   -0.3320 C   0  0  0  0  0  0  0  0  0  0  0  0
   -3.6620   14.9840   -1.5750 C   0  0  0  0  0  0  0  0  0  0  0  0
   -3.0030   14.9980   -2.8050 C   0  0  0  0  0  0  0  0  0  0  0  0
   -3.5200   15.4450   -3.8040 O   0  0  0  0  0  0  0  0  0  0  0  0
   -1.7800   14.4620   -2.7620 O   0  0  0  0  0  0  0  0  0  0  0  0
   -1.2540   14.3030   -4.0810 C   0  0  1  0  0  0  0  0  0  0  0  0
   -1.1420   15.6720   -4.6650 C   0  0  0  0  0  0  0  0  0  0  0  0
    0.2120   13.8940   -4.0450 C   0  0  1  0  0  0  0  0  0  0  0  0
   -2.2100   16.5000   -5.3020 C   0  0  0  0  0  0  0  0  0  0  0  0
    0.1650   16.1440   -4.5480 C   0  0  0  0  0  0  0  0  0  0  0  0
    1.0080   15.2040   -3.9240 C   0  0  0  0  0  0  0  0  0  0  0  0
    0.3810   13.1570   -2.9090 F   0  0  0  0  0  0  0  0  0  0  0  0
   -1.9010   17.7690   -5.7870 C   0  0  0  0  0  0  0  0  0  0  0  0
    0.5010   17.3990   -5.0160 C   0  0  0  0  0  0  0  0  0  0  0  0
   -0.4640   18.2120   -5.6190 C   0  0  0  0  0  0  0  0  0  0  0  0
  1  2  2  0
  2  3  1  0
  2  4  1  0
  3  5  1  0
  4  6  1  0
  5  7  1  0
  6  7  2  0
  6  8  1  0
  7  9  1  0
  8 10  2  0
  9 11  2  0
 10 11  1  0
 11 12  1  0
 12 13  2  0
 12 14  1  0
 15 14  1  1
 15 16  1  0
 15 17  1  0
 16 18  2  0
 16 19  1  0
 17 20  1  0
 19 20  1  0
 17 21  1  1
 18 22  1  0
 19 23  2  0
 22 24  2  0
 23 24  1  0
M  END
>  <comRMSD>  (2) 
0.256796

>  <ref_mols>  (2) 
x0104_0

>  <N_hits>  (2) 
2.0

>  <∆∆G>  (2) 
-9.023929

>  <N_diff_atoms>  (2) 
2.0

>  <generation_date>  (2) 
nan

>  <LE>  (2) 
-0.375997

>  <N_constrained_atoms>  (2) 
24.0

>  <%Rank>  (2) 
5.555556

>  <ref_pdb>  (2) 
x0104_0

>  <original SMILES>  (2) 
O=C1CSC2=CC(C(=O)OC3C4=CC=CC=C4CC3F)=CC=C2N1

>  <regarded>  (2) 
mac-x0213,mac-x0380

>  <disregarded>  (2) 


>  <ref_url>  (2) 
nan

$$$$
m-272610-18205366-17773864
     RDKit          3D

 26 29  0  0  0  0  0  0  0  0999 V2000
   -7.8750   14.7750    3.1320 O   0  0  0  0  0  0  0  0  0  0  0  0
   -7.2590   14.6170    2.0790 C   0  0  0  0  0  0  0  0  0  0  0  0
   -7.9400   14.0760    0.8500 C   0  0  0  0  0  0  0  0  0  0  0  0
   -5.9290   14.9440    1.9980 N   0  0  0  0  0  0  0  0  0  0  0  0
   -7.5680   15.0460   -0.6170 S   0  0  0  0  0  0  0  0  0  0  0  0
   -5.1820   14.9770    0.8090 C   0  0  0  0  0  0  0  0  0  0  0  0
   -5.8000   15.0240   -0.4440 C   0  0  0  0  0  0  0  0  0  0  0  0
   -3.7840   14.9590    0.8970 C   0  0  0  0  0  0  0  0  0  0  0  0
   -5.0500   15.0500   -1.5980 C   0  0  0  0  0  0  0  0  0  0  0  0
   -3.0230   14.9800   -0.2730 C   0  0  0  0  0  0  0  0  0  0  0  0
   -3.6670   15.0240   -1.5180 C   0  0  0  0  0  0  0  0  0  0  0  0
   -2.9780   15.0380   -2.7240 C   0  0  0  0  0  0  0  0  0  0  0  0
   -3.4680   15.5200   -3.7210 O   0  0  0  0  0  0  0  0  0  0  0  0
   -1.7450   14.4570   -2.7530 N   0  0  0  0  0  0  0  0  0  0  0  0
   -1.1810   14.2450   -4.0660 C   0  0  1  0  0  0  0  0  0  0  0  0
   -1.0860   15.6180   -4.6590 C   0  0  0  0  0  0  0  0  0  0  0  0
    0.3000   13.8480   -3.9710 C   0  0  1  0  0  0  0  0  0  0  0  0
   -2.1720   16.4230   -5.3030 C   0  0  0  0  0  0  0  0  0  0  0  0
    0.2050   16.1110   -4.5400 C   0  0  0  0  0  0  0  0  0  0  0  0
    1.0610   15.1900   -3.9090 C   0  0  0  0  0  0  0  0  0  0  0  0
    0.4720   12.8670   -2.8210 C   0  0  0  0  0  0  0  0  0  0  0  0
   -1.8830   17.6990   -5.7890 C   0  0  0  0  0  0  0  0  0  0  0  0
    0.5220   17.3740   -5.0130 C   0  0  0  0  0  0  0  0  0  0  0  0
    0.9040   13.1340   -1.7140 O   0  0  0  0  0  0  0  0  0  0  0  0
    0.1020   11.5980   -3.0740 O   0  0  0  0  0  0  0  0  0  0  0  0
   -0.4580   18.1640   -5.6180 C   0  0  0  0  0  0  0  0  0  0  0  0
  1  2  2  0
  2  3  1  0
  2  4  1  0
  3  5  1  0
  4  6  1  0
  5  7  1  0
  6  7  2  0
  6  8  1  0
  7  9  1  0
  8 10  2  0
  9 11  2  0
 10 11  1  0
 11 12  1  0
 12 13  2  0
 12 14  1  0
 15 14  1  1
 15 16  1  0
 15 17  1  0
 16 18  2  0
 16 19  1  0
 17 20  1  0
 19 20  1  0
 17 21  1  1
 18 22  1  0
 19 23  2  0
 21 24  2  0
 21 25  1  0
 22 26  2  0
 23 26  1  0
M  END
>  <comRMSD>  (3) 
0.23899

>  <ref_mols>  (3) 
x0104_0

>  <N_hits>  (3) 
2.0

>  <∆∆G>  (3) 
-8.280125

>  <N_diff_atoms>  (3) 
0.0

>  <generation_date>  (3) 
nan

>  <LE>  (3) 
-0.318466

>  <N_constrained_atoms>  (3) 
26.0

>  <%Rank>  (3) 
11.111111

>  <ref_pdb>  (3) 
x0104_0

>  <original SMILES>  (3) 
O=C1CSC2=CC(C(=O)NC3C4=CC=CC=C4CC3C(=O)O)=CC=C2N1

>  <regarded>  (3) 
mac-x0213,mac-x0380

>  <disregarded>  (3) 


>  <ref_url>  (3) 
nan

$$$$
s-487-210243-12883856
     RDKit          3D

 20 22  0  0  0  0  0  0  0  0999 V2000
   -8.8760   15.7750    2.3890 O   0  0  0  0  0  0  0  0  0  0  0  0
   -7.9350   15.2280    2.9590 C   0  0  0  0  0  0  0  0  0  0  0  0
   -7.6560   15.3710    4.2960 N   0  0  0  0  0  0  0  0  0  0  0  0
   -6.9900   14.3850    2.4190 N   0  0  0  0  0  0  0  0  0  0  0  0
   -8.4820   16.1740    5.1810 C   0  0  0  0  0  0  0  0  0  0  0  0
   -6.2340   14.5960    1.2540 C   0  0  0  0  0  0  0  0  0  0  0  0
   -8.5780   15.7530    6.6040 C   0  0  0  0  0  0  0  0  0  0  0  0
   -9.1980   17.3090    4.8240 C   0  0  0  0  0  0  0  0  0  0  0  0
   -6.8930   14.8840   -0.0570 C   0  0  0  0  0  0  0  0  0  0  0  0
   -4.8900   14.5300    1.3070 N   0  0  0  0  0  0  0  0  0  0  0  0
   -9.3490   16.4720    7.4970 C   0  0  0  0  0  0  0  0  0  0  0  0
   -9.9610   18.0220    5.6960 N   0  0  0  0  0  0  0  0  0  0  0  0
   -6.0250   15.0800   -1.2370 C   0  0  0  0  0  0  0  0  0  0  0  0
   -4.1190   14.7050    0.2140 C   0  0  0  0  0  0  0  0  0  0  0  0
  -10.0200   17.5990    6.9890 C   0  0  0  0  0  0  0  0  0  0  0  0
   -4.6470   14.9770   -1.0620 C   0  0  0  0  0  0  0  0  0  0  0  0
   -2.5930   14.5920    0.3980 C   0  0  0  0  0  0  0  0  0  0  0  0
   -3.7900   15.1570   -2.2630 C   0  0  0  0  0  0  0  0  0  0  0  0
   -1.9050   14.7770   -0.8170 C   0  0  0  0  0  0  0  0  0  0  0  0
   -2.4210   15.0420   -2.0860 C   0  0  0  0  0  0  0  0  0  0  0  0
  1  2  2  0
  2  3  1  0
  2  4  1  0
  3  5  1  0
  4  6  1  0
  5  7  2  0
  5  8  1  0
  6  9  2  0
  6 10  1  0
  7 11  1  0
  8 12  2  0
  9 13  1  0
 10 14  2  0
 11 15  2  0
 12 15  1  0
 13 16  2  0
 14 16  1  0
 14 17  1  0
 16 18  1  0
 17 19  2  0
 18 20  2  0
 19 20  1  0
M  END
>  <comRMSD>  (4) 
0.352769

>  <ref_mols>  (4) 
x0128_0_A

>  <N_hits>  (4) 
2.0

>  <∆∆G>  (4) 
-6.80587

>  <N_diff_atoms>  (4) 
7.0

>  <generation_date>  (4) 
nan

>  <LE>  (4) 
-0.324089

>  <N_constrained_atoms>  (4) 
21.0

>  <%Rank>  (4) 
16.666667

>  <ref_pdb>  (4) 
x0104_0

>  <original SMILES>  (4) 
O=C(NC1=CC=CN=C1)NC2=CC=C3C=CC=CC3=N2

>  <regarded>  (4) 
mac-x0341,diamond-x0128_0_A

>  <disregarded>  (4) 


>  <ref_url>  (4) 
nan

$$$$
m-272610-18205442-17773864
     RDKit          3D

 25 28  0  0  0  0  0  0  0  0999 V2000
   -7.6610   14.8650    3.0270 O   0  0  0  0  0  0  0  0  0  0  0  0
   -7.0640   14.6930    1.9620 C   0  0  0  0  0  0  0  0  0  0  0  0
   -7.7730   14.1330    0.7590 C   0  0  0  0  0  0  0  0  0  0  0  0
   -5.7280   15.0240    1.8620 N   0  0  0  0  0  0  0  0  0  0  0  0
   -7.3660   15.0380   -0.7420 S   0  0  0  0  0  0  0  0  0  0  0  0
   -4.9810   14.9270    0.6670 C   0  0  0  0  0  0  0  0  0  0  0  0
   -5.5990   14.9140   -0.5850 C   0  0  0  0  0  0  0  0  0  0  0  0
   -3.5830   14.8310    0.7370 C   0  0  0  0  0  0  0  0  0  0  0  0
   -4.8530   14.7930   -1.7490 C   0  0  0  0  0  0  0  0  0  0  0  0
   -2.8190   14.7070   -0.4430 C   0  0  0  0  0  0  0  0  0  0  0  0
   -3.4540   14.6780   -1.7030 C   0  0  0  0  0  0  0  0  0  0  0  0
   -2.8120   14.5260   -2.9690 C   0  0  0  0  0  0  0  0  0  0  0  0
   -3.4830   14.1500   -3.9070 O   0  0  0  0  0  0  0  0  0  0  0  0
   -1.4930   14.8340   -3.2940 N   0  0  0  0  0  0  0  0  0  0  0  0
   -1.2170   15.8890   -4.1960 C   0  0  0  0  0  0  0  0  0  0  0  0
   -0.3340   13.8540   -3.5080 C   0  0  1  0  0  0  0  0  0  0  0  0
   -2.0990   16.8910   -4.8060 C   0  0  0  0  0  0  0  0  0  0  0  0
    0.1020   15.9550   -4.5260 C   0  0  0  0  0  0  0  0  0  0  0  0
    0.7240   14.9100   -3.8730 C   0  0  0  0  0  0  0  0  0  0  0  0
   -0.0800   12.9080   -2.4800 C   0  0  0  0  0  0  0  0  0  0  0  0
   -1.5620   17.9270   -5.7150 C   0  0  0  0  0  0  0  0  0  0  0  0
    0.6400   16.9260   -5.3830 C   0  0  0  0  0  0  0  0  0  0  0  0
    0.2850   13.1060   -1.3080 O   0  0  0  0  0  0  0  0  0  0  0  0
   -0.2410   11.6110   -2.8280 O   0  0  0  0  0  0  0  0  0  0  0  0
   -0.1750   17.9310   -5.9880 C   0  0  0  0  0  0  0  0  0  0  0  0
  1  2  2  0
  2  3  1  0
  2  4  1  0
  3  5  1  0
  4  6  1  0
  5  7  1  0
  6  7  2  0
  6  8  1  0
  7  9  1  0
  8 10  2  0
  9 11  2  0
 10 11  1  0
 11 12  1  0
 12 13  2  0
 12 14  1  0
 14 15  1  0
 14 16  1  0
 15 17  2  0
 15 18  1  0
 16 19  1  0
 18 19  1  0
 16 20  1  1
 17 21  1  0
 18 22  2  0
 20 23  2  0
 20 24  1  0
 21 25  2  0
 22 25  1  0
M  END
>  <comRMSD>  (5) 
0.526783

>  <ref_mols>  (5) 
x0104_0

>  <N_hits>  (5) 
2.0

>  <∆∆G>  (5) 
-7.685856

>  <N_diff_atoms>  (5) 
1.0

>  <generation_date>  (5) 
nan

>  <LE>  (5) 
-0.307434

>  <N_constrained_atoms>  (5) 
25.0

>  <%Rank>  (5) 
22.222222

>  <ref_pdb>  (5) 
x0104_0

>  <original SMILES>  (5) 
O=C1CSC2=CC(C(=O)N3C4=CC=CC=C4C[C@@H]3C(=O)O)=CC=C2N1

>  <regarded>  (5) 
mac-x0213,mac-x0380

>  <disregarded>  (5) 


>  <ref_url>  (5) 
nan

$$$$
m-272610-18205366-17768894
     RDKit          3D

 27 30  0  0  0  0  0  0  0  0999 V2000
   -4.0120   15.4050   -3.6850 O   0  0  0  0  0  0  0  0  0  0  0  0
   -3.4130   15.0670   -2.6720 C   0  0  0  0  0  0  0  0  0  0  0  0
   -2.0910   14.7000   -2.7090 N   0  0  0  0  0  0  0  0  0  0  0  0
   -4.0790   15.0100   -1.3550 C   0  0  0  0  0  0  0  0  0  0  0  0
   -1.4650   14.4280   -3.9800 C   0  0  1  0  0  0  0  0  0  0  0  0
   -5.4740   15.0840   -1.3170 C   0  0  0  0  0  0  0  0  0  0  0  0
   -3.3560   14.8800   -0.1720 C   0  0  0  0  0  0  0  0  0  0  0  0
   -1.2660   15.7550   -4.6350 C   0  0  0  0  0  0  0  0  0  0  0  0
   -0.0240   13.8590   -3.9340 C   0  0  1  0  0  0  0  0  0  0  0  0
   -6.1350   15.0140   -0.0900 C   0  0  0  0  0  0  0  0  0  0  0  0
   -4.0210   14.8140    1.0540 C   0  0  0  0  0  0  0  0  0  0  0  0
   -2.2320   16.5560   -5.2270 C   0  0  0  0  0  0  0  0  0  0  0  0
    0.0720   16.1440   -4.5850 C   0  0  0  0  0  0  0  0  0  0  0  0
    0.9060   15.1010   -3.8940 C   0  0  0  0  0  0  0  0  0  0  0  0
    0.3450   12.8710   -2.8410 C   0  0  0  0  0  0  0  0  0  0  0  0
   -5.4080   14.8770    1.1000 C   0  0  0  0  0  0  0  0  0  0  0  0
   -1.8360   17.7710   -5.7750 C   0  0  0  0  0  0  0  0  0  0  0  0
    0.4700   17.3530   -5.1260 C   0  0  0  0  0  0  0  0  0  0  0  0
    0.9680   13.1970   -1.8390 O   0  0  0  0  0  0  0  0  0  0  0  0
   -0.0410   11.5890   -2.9980 O   0  0  0  0  0  0  0  0  0  0  0  0
   -6.1340   14.8070    2.3040 N   0  0  0  0  0  0  0  0  0  0  0  0
   -0.4930   18.1660   -5.7250 C   0  0  0  0  0  0  0  0  0  0  0  0
   -5.6780   15.1250    3.5650 C   0  0  0  0  0  0  0  0  0  0  0  0
   -4.5050   15.3780    3.8840 O   0  0  0  0  0  0  0  0  0  0  0  0
   -6.7810   15.1600    4.5840 C   0  0  0  0  0  0  0  0  0  0  0  0
   -6.8920   14.2260    5.7670 C   0  0  0  0  0  0  0  0  0  0  0  0
   -7.8660   14.1140    4.6310 C   0  0  0  0  0  0  0  0  0  0  0  0
  1  2  2  0
  2  3  1  0
  2  4  1  0
  5  3  1  1
  4  6  2  0
  4  7  1  0
  5  8  1  0
  5  9  1  0
  6 10  1  0
  7 11  2  0
  8 12  2  0
  8 13  1  0
  9 14  1  0
 13 14  1  0
  9 15  1  1
 10 16  2  0
 11 16  1  0
 12 17  1  0
 13 18  2  0
 15 19  2  0
 15 20  1  0
 16 21  1  0
 17 22  2  0
 18 22  1  0
 21 23  1  0
 23 24  2  0
 23 25  1  0
 25 26  1  0
 25 27  1  0
 26 27  1  0
M  END
>  <comRMSD>  (6) 
0.218118

>  <ref_mols>  (6) 
x0104_0

>  <N_hits>  (6) 
2.0

>  <∆∆G>  (6) 
-10.86274

>  <N_diff_atoms>  (6) 
-5.0

>  <generation_date>  (6) 
nan

>  <LE>  (6) 
-0.387955

>  <N_constrained_atoms>  (6) 
23.0

>  <%Rank>  (6) 
27.777778

>  <ref_pdb>  (6) 
x0104_0

>  <original SMILES>  (6) 
O=C(NC1C2=CC=CC=C2CC1C(=O)O)C1=CC=C(NC(=O)C2CC2)C=C1

>  <regarded>  (6) 
mac-x0213,mac-x0398

>  <disregarded>  (6) 


>  <ref_url>  (6) 
nan

$$$$
m-2430-8961378-14047914
     RDKit          3D

 23 25  0  0  0  0  0  0  0  0999 V2000
   -7.9810   14.7580    7.4870 C   0  0  0  0  0  0  0  0  0  0  0  0
   -8.7020   15.9270    6.8530 C   0  0  0  0  0  0  0  0  0  0  0  0
   -9.5990   16.7770    7.6860 C   0  0  0  0  0  0  0  0  0  0  0  0
   -8.5910   16.2910    5.5130 C   0  0  0  0  0  0  0  0  0  0  0  0
  -10.2590   17.8360    7.1830 N   0  0  0  0  0  0  0  0  0  0  0  0
   -9.3100   17.4040    5.0760 C   0  0  0  0  0  0  0  0  0  0  0  0
   -7.7720   15.5370    4.6680 N   0  0  0  0  0  0  0  0  0  0  0  0
  -10.1100   18.1460    5.8740 N   0  0  0  0  0  0  0  0  0  0  0  0
   -7.9860   15.2820    3.3550 C   0  0  0  0  0  0  0  0  0  0  0  0
   -8.9260   15.6120    2.6430 O   0  0  0  0  0  0  0  0  0  0  0  0
   -6.9220   14.5630    2.9350 N   0  0  0  0  0  0  0  0  0  0  0  0
   -7.0230   13.7570    1.7590 C   0  0  0  0  0  0  0  0  0  0  0  0
   -6.0510   14.2700    0.7670 C   0  0  0  0  0  0  0  0  0  0  0  0
   -4.8010   14.3960    1.1080 N   0  0  0  0  0  0  0  0  0  0  0  0
   -6.5780   14.5630   -0.4680 N   0  0  0  0  0  0  0  0  0  0  0  0
   -3.8970   14.8370    0.1410 C   0  0  0  0  0  0  0  0  0  0  0  0
   -5.7980   14.9470   -1.5190 C   0  0  0  0  0  0  0  0  0  0  0  0
   -2.5390   15.0050    0.4490 C   0  0  0  0  0  0  0  0  0  0  0  0
   -4.3350   15.1040   -1.1300 C   0  0  0  0  0  0  0  0  0  0  0  0
   -6.2410   15.1340   -2.6380 O   0  0  0  0  0  0  0  0  0  0  0  0
   -1.6640   15.4730   -0.7070 C   0  0  0  0  0  0  0  0  0  0  0  0
   -3.5430   15.5240   -2.1700 C   0  0  0  0  0  0  0  0  0  0  0  0
   -2.1910   15.7160   -1.9830 C   0  0  0  0  0  0  0  0  0  0  0  0
  1  2  1  0
  2  3  2  0
  2  4  1  0
  3  5  1  0
  4  6  2  0
  4  7  1  0
  5  8  2  0
  6  8  1  0
  7  9  1  0
  9 10  2  0
  9 11  1  0
 11 12  1  0
 12 13  1  0
 13 14  2  0
 13 15  1  0
 14 16  1  0
 15 17  1  0
 16 18  2  0
 16 19  1  0
 17 19  1  0
 17 20  2  0
 18 21  1  0
 19 22  2  0
 21 23  2  0
 22 23  1  0
M  END
>  <comRMSD>  (7) 
0.541638

>  <ref_mols>  (7) 
x0128_0_A

>  <N_hits>  (7) 
2.0

>  <∆∆G>  (7) 
-8.923282

>  <N_diff_atoms>  (7) 
5.0

>  <generation_date>  (7) 
nan

>  <LE>  (7) 
-0.387969

>  <N_constrained_atoms>  (7) 
21.0

>  <%Rank>  (7) 
33.333333

>  <ref_pdb>  (7) 
x0104_0

>  <original SMILES>  (7) 
CC1=CN=NC=C1NC(=O)NCC2=NC3=CC=CC=C3C(=O)[NH]2

>  <regarded>  (7) 
mac-x0341,diamond-x0128_0_A

>  <disregarded>  (7) 


>  <ref_url>  (7) 
nan

$$$$
s-487-14047900-150243
     RDKit          3D

 22 24  0  0  0  0  0  0  0  0999 V2000
   -8.9800   15.7940    2.6920 O   0  0  0  0  0  0  0  0  0  0  0  0
   -8.0360   15.3690    3.3550 C   0  0  0  0  0  0  0  0  0  0  0  0
   -7.1120   14.5600    2.8060 N   0  0  0  0  0  0  0  0  0  0  0  0
   -7.7530   15.6080    4.6570 N   0  0  0  0  0  0  0  0  0  0  0  0
   -7.4030   13.9340    1.5690 C   0  0  0  0  0  0  0  0  0  0  0  0
   -8.5760   16.2720    5.5560 C   0  0  0  0  0  0  0  0  0  0  0  0
   -6.3120   14.2780    0.6280 C   0  0  0  0  0  0  0  0  0  0  0  0
   -8.7600   15.8870    6.8750 C   0  0  0  0  0  0  0  0  0  0  0  0
   -9.2600   17.3980    5.0980 C   0  0  0  0  0  0  0  0  0  0  0  0
   -5.0590   14.2490    1.0190 N   0  0  0  0  0  0  0  0  0  0  0  0
   -6.7550   14.5900   -0.6310 N   0  0  0  0  0  0  0  0  0  0  0  0
   -9.6180   16.6490    7.6680 C   0  0  0  0  0  0  0  0  0  0  0  0
  -10.0980   18.1480    5.8420 N   0  0  0  0  0  0  0  0  0  0  0  0
   -4.0820   14.5000    0.0580 C   0  0  0  0  0  0  0  0  0  0  0  0
   -5.9090   14.9100   -1.6420 C   0  0  0  0  0  0  0  0  0  0  0  0
  -10.2580   17.7580    7.1170 C   0  0  0  0  0  0  0  0  0  0  0  0
   -2.7110   14.4330    0.3350 C   0  0  0  0  0  0  0  0  0  0  0  0
   -4.4440   14.8070   -1.2180 C   0  0  0  0  0  0  0  0  0  0  0  0
   -6.2850   15.2200   -2.7530 O   0  0  0  0  0  0  0  0  0  0  0  0
   -1.7640   14.6660   -0.6970 C   0  0  0  0  0  0  0  0  0  0  0  0
   -3.5070   15.0520   -2.2840 C   0  0  0  0  0  0  0  0  0  0  0  0
   -2.1620   14.9730   -2.0160 C   0  0  0  0  0  0  0  0  0  0  0  0
  1  2  2  0
  2  3  1  0
  2  4  1  0
  3  5  1  0
  4  6  1  0
  5  7  1  0
  6  8  2  0
  6  9  1  0
  7 10  2  0
  7 11  1  0
  8 12  1  0
  9 13  2  0
 10 14  1  0
 11 15  1  0
 12 16  2  0
 13 16  1  0
 14 17  2  0
 14 18  1  0
 15 18  1  0
 15 19  2  0
 17 20  1  0
 18 21  2  0
 20 22  2  0
 21 22  1  0
M  END
>  <comRMSD>  (8) 
0.601765

>  <ref_mols>  (8) 
x0128_0_A

>  <N_hits>  (8) 
2.0

>  <∆∆G>  (8) 
-5.206435

>  <N_diff_atoms>  (8) 
6.0

>  <generation_date>  (8) 
nan

>  <LE>  (8) 
-0.236656

>  <N_constrained_atoms>  (8) 
21.0

>  <%Rank>  (8) 
38.888889

>  <ref_pdb>  (8) 
x0104_0

>  <original SMILES>  (8) 
O=C(NCC1=NC2=CC=CC=C2C(=O)[NH]1)NC3=CC=CN=C3

>  <regarded>  (8) 
mac-x0341,diamond-x0128_0_A

>  <disregarded>  (8) 


>  <ref_url>  (8) 
nan

$$$$
m-272610-18205366-17770920
     RDKit          3D

 26 28  0  0  0  0  0  0  0  0999 V2000
   -9.2720   15.6650    0.7950 C   0  0  0  0  0  0  0  0  0  0  0  0
   -8.3090   14.6510    1.0980 O   0  0  0  0  0  0  0  0  0  0  0  0
   -7.6770   14.8230    2.2920 C   0  0  0  0  0  0  0  0  0  0  0  0
   -8.2790   14.9370    3.3500 O   0  0  0  0  0  0  0  0  0  0  0  0
   -6.3150   14.8540    2.0880 N   0  0  0  0  0  0  0  0  0  0  0  0
   -5.5770   14.8750    0.8840 C   0  0  0  0  0  0  0  0  0  0  0  0
   -4.1900   14.7470    0.8340 C   0  0  0  0  0  0  0  0  0  0  0  0
   -6.2870   15.0350   -0.3140 C   0  0  0  0  0  0  0  0  0  0  0  0
   -3.5290   14.7650   -0.4060 C   0  0  0  0  0  0  0  0  0  0  0  0
   -5.6310   15.0540   -1.5400 C   0  0  0  0  0  0  0  0  0  0  0  0
   -4.2470   14.9110   -1.6040 C   0  0  0  0  0  0  0  0  0  0  0  0
   -3.5760   14.9080   -2.9400 C   0  0  0  0  0  0  0  0  0  0  0  0
   -4.0550   15.5350   -3.8600 O   0  0  0  0  0  0  0  0  0  0  0  0
   -2.4390   14.1440   -3.1240 N   0  0  0  0  0  0  0  0  0  0  0  0
   -1.1610   14.8010   -3.2000 C   0  0  2  0  0  0  0  0  0  0  0  0
   -1.1110   15.8960   -4.1820 C   0  0  0  0  0  0  0  0  0  0  0  0
    0.0470   14.0350   -3.8030 C   0  0  1  0  0  0  0  0  0  0  0  0
   -2.0790   16.7540   -4.6670 C   0  0  0  0  0  0  0  0  0  0  0  0
    0.1550   15.9890   -4.6040 C   0  0  0  0  0  0  0  0  0  0  0  0
    1.0420   15.0390   -4.0640 C   0  0  0  0  0  0  0  0  0  0  0  0
    0.5070   12.9660   -2.8310 C   0  0  0  0  0  0  0  0  0  0  0  0
   -1.6530   17.8060   -5.6650 C   0  0  0  0  0  0  0  0  0  0  0  0
    0.5990   16.9270   -5.5060 C   0  0  0  0  0  0  0  0  0  0  0  0
    1.1420   13.1020   -1.8070 O   0  0  0  0  0  0  0  0  0  0  0  0
    0.1080   11.7300   -3.2090 O   0  0  0  0  0  0  0  0  0  0  0  0
   -0.2950   17.8590   -6.0540 C   0  0  0  0  0  0  0  0  0  0  0  0
  1  2  1  0
  2  3  1  0
  3  4  2  0
  3  5  1  0
  5  6  1  0
  6  7  2  0
  6  8  1  0
  7  9  1  0
  8 10  2  0
  9 11  2  0
 10 11  1  0
 11 12  1  0
 12 13  2  0
 12 14  1  0
 15 14  1  6
 15 16  1  0
 15 17  1  0
 16 18  2  0
 16 19  1  0
 17 20  1  0
 19 20  1  0
 17 21  1  1
 18 22  1  0
 19 23  2  0
 21 24  2  0
 21 25  1  0
 22 26  2  0
 23 26  1  0
M  END
>  <comRMSD>  (9) 
0.484697

>  <ref_mols>  (9) 
x0104_0

>  <N_hits>  (9) 
2.0

>  <∆∆G>  (9) 
-7.678302

>  <N_diff_atoms>  (9) 
-4.0

>  <generation_date>  (9) 
nan

>  <LE>  (9) 
-0.284382

>  <N_constrained_atoms>  (9) 
23.0

>  <%Rank>  (9) 
44.444444

>  <ref_pdb>  (9) 
x0104_0

>  <original SMILES>  (9) 
COC(=O)NC1=CC=C(C(=O)NC2C3=CC=CC=C3CC2C(=O)O)C=C1

>  <regarded>  (9) 
mac-x0213,mac-x0398

>  <disregarded>  (9) 


>  <ref_url>  (9) 
nan

$$$$
m-272610-18205366-18219660
     RDKit          3D

 26 28  0  0  0  0  0  0  0  0999 V2000
   -6.6980   14.3030    5.3900 C   0  0  0  0  0  0  0  0  0  0  0  0
   -6.4880   15.2940    4.4590 N   0  0  0  0  0  0  0  0  0  0  0  0
   -5.5250   15.1350    3.3920 C   0  0  0  0  0  0  0  0  0  0  0  0
   -4.3410   15.4470    3.5840 O   0  0  0  0  0  0  0  0  0  0  0  0
   -6.0160   14.6700    2.2950 N   0  0  0  0  0  0  0  0  0  0  0  0
   -5.3770   14.7540    1.0460 C   0  0  0  0  0  0  0  0  0  0  0  0
   -6.1510   14.9540   -0.0940 C   0  0  0  0  0  0  0  0  0  0  0  0
   -3.9860   14.6300    0.9400 C   0  0  0  0  0  0  0  0  0  0  0  0
   -5.5410   15.0170   -1.3430 C   0  0  0  0  0  0  0  0  0  0  0  0
   -3.3740   14.6930   -0.3200 C   0  0  0  0  0  0  0  0  0  0  0  0
   -4.1590   14.8800   -1.4680 C   0  0  0  0  0  0  0  0  0  0  0  0
   -3.5540   14.9260   -2.8290 C   0  0  0  0  0  0  0  0  0  0  0  0
   -4.1000   15.5580   -3.7020 O   0  0  0  0  0  0  0  0  0  0  0  0
   -2.4170   14.2000   -3.0660 N   0  0  0  0  0  0  0  0  0  0  0  0
   -1.1490   14.8490   -3.1500 C   0  0  2  0  0  0  0  0  0  0  0  0
   -1.1140   15.9120   -4.1810 C   0  0  0  0  0  0  0  0  0  0  0  0
    0.0600   14.0750   -3.7140 C   0  0  1  0  0  0  0  0  0  0  0  0
   -2.1390   16.7260   -4.6650 C   0  0  0  0  0  0  0  0  0  0  0  0
    0.1530   16.0030   -4.6060 C   0  0  0  0  0  0  0  0  0  0  0  0
    1.0350   15.0750   -4.0400 C   0  0  0  0  0  0  0  0  0  0  0  0
    0.4820   12.9480   -2.8150 C   0  0  0  0  0  0  0  0  0  0  0  0
   -1.6560   17.7430   -5.6980 C   0  0  0  0  0  0  0  0  0  0  0  0
    0.5990   16.9070   -5.5250 C   0  0  0  0  0  0  0  0  0  0  0  0
    1.0820   13.0720   -1.7670 O   0  0  0  0  0  0  0  0  0  0  0  0
    0.1390   11.7150   -3.2330 O   0  0  0  0  0  0  0  0  0  0  0  0
   -0.3020   17.8030   -6.0880 C   0  0  0  0  0  0  0  0  0  0  0  0
  1  2  1  0
  2  3  1  0
  3  4  2  0
  3  5  1  0
  5  6  1  0
  6  7  2  0
  6  8  1  0
  7  9  1  0
  8 10  2  0
  9 11  2  0
 10 11  1  0
 11 12  1  0
 12 13  2  0
 12 14  1  0
 15 14  1  6
 15 16  1  0
 15 17  1  0
 16 18  2  0
 16 19  1  0
 17 20  1  0
 19 20  1  0
 17 21  1  1
 18 22  1  0
 19 23  2  0
 21 24  2  0
 21 25  1  0
 22 26  2  0
 23 26  1  0
M  END
>  <comRMSD>  (10) 
0.513419

>  <ref_mols>  (10) 
x0104_0

>  <N_hits>  (10) 
2.0

>  <∆∆G>  (10) 
-9.906483

>  <N_diff_atoms>  (10) 
-5.0

>  <generation_date>  (10) 
nan

>  <LE>  (10) 
-0.353803

>  <N_constrained_atoms>  (10) 
23.0

>  <%Rank>  (10) 
50.0

>  <ref_pdb>  (10) 
x0104_0

>  <original SMILES>  (10) 
CNC(=O)NC1=CC=C(C(=O)NC2C3=CC=CC=C3CC2C(=O)O)C=C1

>  <regarded>  (10) 
mac-x0213,mac-x0398

>  <disregarded>  (10) 


>  <ref_url>  (10) 
nan

$$$$
m-272610-18205366-18208686
     RDKit          3D

 28 31  0  0  0  0  0  0  0  0999 V2000
   -8.5210   14.6310    1.6710 O   0  0  0  0  0  0  0  0  0  0  0  0
   -7.4790   14.2180    2.1820 C   0  0  0  0  0  0  0  0  0  0  0  0
   -6.2650   14.8570    2.0910 N   0  0  0  0  0  0  0  0  0  0  0  0
   -7.3410   13.0570    2.9240 N   0  0  0  0  0  0  0  0  0  0  0  0
   -5.6160   14.9030    0.8020 C   0  0  0  0  0  0  0  0  0  0  0  0
   -7.6830   11.7840    2.3660 C   0  0  0  0  0  0  0  0  0  0  0  0
   -4.1290   14.7810    0.7660 C   0  0  0  0  0  0  0  0  0  0  0  0
   -6.3040   15.0500   -0.3880 C   0  0  0  0  0  0  0  0  0  0  0  0
   -9.1200   11.4050    2.1410 C   0  0  0  0  0  0  0  0  0  0  0  0
   -8.3300   10.7290    3.2210 C   0  0  0  0  0  0  0  0  0  0  0  0
   -3.4360   14.8010   -0.4310 C   0  0  0  0  0  0  0  0  0  0  0  0
   -5.5920   15.0700   -1.5860 C   0  0  0  0  0  0  0  0  0  0  0  0
   -4.1840   14.9420   -1.6240 C   0  0  0  0  0  0  0  0  0  0  0  0
   -3.5560   14.9510   -2.8850 C   0  0  0  0  0  0  0  0  0  0  0  0
   -4.0120   15.5550   -3.8230 O   0  0  0  0  0  0  0  0  0  0  0  0
   -2.4170   14.1920   -3.0370 N   0  0  0  0  0  0  0  0  0  0  0  0
   -1.1150   14.8070   -3.0630 C   0  0  2  0  0  0  0  0  0  0  0  0
   -1.0280   15.8630   -4.1280 C   0  0  0  0  0  0  0  0  0  0  0  0
    0.0300   13.9220   -3.5650 C   0  0  1  0  0  0  0  0  0  0  0  0
   -2.1000   16.7290   -4.7100 C   0  0  0  0  0  0  0  0  0  0  0  0
    0.2930   15.9660   -4.5420 C   0  0  0  0  0  0  0  0  0  0  0  0
    1.0870   15.0120   -3.8610 C   0  0  0  0  0  0  0  0  0  0  0  0
    0.2670   12.8220   -2.5400 C   0  0  0  0  0  0  0  0  0  0  0  0
   -1.7700   17.6810   -5.6740 C   0  0  0  0  0  0  0  0  0  0  0  0
    0.6590   16.9020   -5.4910 C   0  0  0  0  0  0  0  0  0  0  0  0
    0.5300   12.9350   -1.3470 O   0  0  0  0  0  0  0  0  0  0  0  0
    0.1450   11.5840   -3.0690 O   0  0  0  0  0  0  0  0  0  0  0  0
   -0.3080   17.7500   -6.0550 C   0  0  0  0  0  0  0  0  0  0  0  0
  1  2  2  0
  2  3  1  0
  2  4  1  0
  3  5  1  0
  4  6  1  0
  5  7  2  0
  5  8  1  0
  6  9  1  0
  6 10  1  0
  9 10  1  0
  7 11  1  0
  8 12  2  0
 11 13  2  0
 12 13  1  0
 13 14  1  0
 14 15  2  0
 14 16  1  0
 17 16  1  6
 17 18  1  0
 17 19  1  0
 18 20  2  0
 18 21  1  0
 19 22  1  0
 21 22  1  0
 19 23  1  1
 20 24  1  0
 21 25  2  0
 23 26  2  0
 23 27  1  0
 24 28  2  0
 25 28  1  0
M  END
>  <comRMSD>  (11) 
0.504559

>  <ref_mols>  (11) 
x0104_0

>  <N_hits>  (11) 
2.0

>  <∆∆G>  (11) 
-8.25441

>  <N_diff_atoms>  (11) 
-6.0

>  <generation_date>  (11) 
nan

>  <LE>  (11) 
-0.284635

>  <N_constrained_atoms>  (11) 
23.0

>  <%Rank>  (11) 
55.555556

>  <ref_pdb>  (11) 
x0104_0

>  <original SMILES>  (11) 
O=C(NC1=CC=C(C(=O)NC2C3=CC=CC=C3CC2C(=O)O)C=C1)NC1CC1

>  <regarded>  (11) 
mac-x0213,mac-x0398

>  <disregarded>  (11) 


>  <ref_url>  (11) 
nan

$$$$
s-188690-16712282-7316554
     RDKit          3D

 29 32  0  0  0  0  0  0  0  0999 V2000
   -8.4450   14.4830    1.2640 O   0  0  0  0  0  0  0  0  0  0  0  0
   -7.7270   14.7980    2.2120 C   0  0  0  0  0  0  0  0  0  0  0  0
   -6.3480   14.8530    2.1270 N   0  0  0  0  0  0  0  0  0  0  0  0
   -8.2060   15.1390    3.4720 N   0  0  0  0  0  0  0  0  0  0  0  0
   -5.6840   14.8860    0.8360 C   0  0  0  0  0  0  0  0  0  0  0  0
   -9.1910   16.1690    3.6340 C   0  0  0  0  0  0  0  0  0  0  0  0
   -4.1960   14.7620    0.8120 C   0  0  0  0  0  0  0  0  0  0  0  0
   -6.3570   15.0270   -0.3650 C   0  0  0  0  0  0  0  0  0  0  0  0
  -10.1450   16.1350    4.7970 C   0  0  0  0  0  0  0  0  0  0  0  0
   -9.0650   17.1750    4.7480 C   0  0  0  0  0  0  0  0  0  0  0  0
   -3.4850   14.7750   -0.3800 C   0  0  0  0  0  0  0  0  0  0  0  0
   -5.6270   15.0400   -1.5570 C   0  0  0  0  0  0  0  0  0  0  0  0
   -4.2210   14.9110   -1.5790 C   0  0  0  0  0  0  0  0  0  0  0  0
   -3.5820   14.9130   -2.8350 C   0  0  0  0  0  0  0  0  0  0  0  0
   -4.0380   15.5070   -3.7830 O   0  0  0  0  0  0  0  0  0  0  0  0
   -2.4290   14.1730   -3.0070 N   0  0  0  0  0  0  0  0  0  0  0  0
   -1.1600   14.8460   -3.0850 C   0  0  2  0  0  0  0  0  0  0  0  0
   -1.1060   15.9040   -4.1400 C   0  0  0  0  0  0  0  0  0  0  0  0
    0.0070   14.0250   -3.6860 C   0  0  1  0  0  0  0  0  0  0  0  0
    0.2380   16.0620   -4.7000 C   0  0  0  0  0  0  0  0  0  0  0  0
    1.0810   15.1080   -4.1000 C   0  0  0  0  0  0  0  0  0  0  0  0
    0.3650   12.9960   -2.8020 C   0  0  0  0  0  0  0  0  0  0  0  0
   -2.1620   16.7060   -4.5920 C   0  0  0  0  0  0  0  0  0  0  0  0
    0.9840   13.1560   -1.7660 O   0  0  0  0  0  0  0  0  0  0  0  0
   -0.0360   11.7600   -3.1910 O   0  0  0  0  0  0  0  0  0  0  0  0
    0.4970   17.0300   -5.6610 C   0  0  0  0  0  0  0  0  0  0  0  0
   -1.9210   17.6750   -5.5610 C   0  0  0  0  0  0  0  0  0  0  0  0
    1.7060   17.2460   -6.2220 O   0  0  0  0  0  0  0  0  0  0  0  0
   -0.5230   17.8510   -6.1160 C   0  0  0  0  0  0  0  0  0  0  0  0
  1  2  2  0
  2  3  1  0
  2  4  1  0
  3  5  1  0
  4  6  1  0
  5  7  2  0
  5  8  1  0
  6  9  1  0
  6 10  1  0
  9 10  1  0
  7 11  1  0
  8 12  2  0
 11 13  2  0
 12 13  1  0
 13 14  1  0
 14 15  2  0
 14 16  1  0
 17 16  1  6
 17 18  1  0
 17 19  1  0
 18 20  2  0
 19 21  1  0
 20 21  1  0
 19 22  1  1
 18 23  1  0
 22 24  2  0
 22 25  1  0
 20 26  1  0
 23 27  2  0
 26 28  1  0
 26 29  2  0
 27 29  1  0
M  END
>  <comRMSD>  (12) 
0.504609

>  <ref_mols>  (12) 
x0104_0

>  <N_hits>  (12) 
2.0

>  <∆∆G>  (12) 
-8.149351

>  <N_diff_atoms>  (12) 
-8.0

>  <generation_date>  (12) 
nan

>  <LE>  (12) 
-0.262882

>  <N_constrained_atoms>  (12) 
23.0

>  <%Rank>  (12) 
61.111111

>  <ref_pdb>  (12) 
x0104_0

>  <original SMILES>  (12) 
O=C(NC1=CC=C(C(=O)NC2C3=C(CC2C(=O)O)C(O)=CC=C3)C=C1)NC1CC1

>  <regarded>  (12) 
mac-x0213,mac-x0398

>  <disregarded>  (12) 


>  <ref_url>  (12) 
nan

$$$$
s-34-13231222-1282712-
     RDKit          3D

 23 26  0  0  0  0  0  0  0  0999 V2000
    4.9350   14.4950   -0.2520 C   0  0  0  0  0  0  0  0  0  0  0  0
    3.8390   14.0280   -1.2500 C   0  0  0  0  0  0  0  0  0  0  0  0
    3.9850   13.2540   -2.4810 C   0  0  0  0  0  0  0  0  0  0  0  0
    2.4560   14.1770   -1.2160 O   0  0  0  0  0  0  0  0  0  0  0  0
    2.9250   12.9530   -3.1170 C   0  0  0  0  0  0  0  0  0  0  0  0
    1.9480   13.4810   -2.3740 C   0  0  0  0  0  0  0  0  0  0  0  0
    0.7160   13.2400   -2.8800 C   0  0  0  0  0  0  0  0  0  0  0  0
   -0.1440   14.1680   -2.8920 N   0  0  0  0  0  0  0  0  0  0  0  0
    0.2610   11.7180   -3.5560 S   0  0  0  0  0  0  0  0  0  0  0  0
   -1.2690   13.7100   -3.4790 C   0  0  0  0  0  0  0  0  0  0  0  0
   -1.2500   12.4000   -3.9170 C   0  0  0  0  0  0  0  0  0  0  0  0
   -2.3380   14.6830   -3.5650 C   0  0  0  0  0  0  0  0  0  0  0  0
   -2.9230   14.9330   -2.2730 N   0  0  0  0  0  0  0  0  0  0  0  0
   -4.1870   15.4180   -2.1910 C   0  0  0  0  0  0  0  0  0  0  0  0
   -2.4370   14.7760   -0.9630 C   0  0  0  0  0  0  0  0  0  0  0  0
   -4.5720   15.6030   -0.9680 N   0  0  0  0  0  0  0  0  0  0  0  0
   -3.5060   15.2150   -0.2040 C   0  0  0  0  0  0  0  0  0  0  0  0
   -1.2430   14.3260   -0.4570 N   0  0  0  0  0  0  0  0  0  0  0  0
   -3.3230   15.1950    1.2720 C   0  0  0  0  0  0  0  0  0  0  0  0
   -1.1920   14.3440    0.9220 C   0  0  0  0  0  0  0  0  0  0  0  0
   -4.3120   15.6270    2.1280 N   0  0  0  0  0  0  0  0  0  0  0  0
   -2.1550   14.7430    1.7640 N   0  0  0  0  0  0  0  0  0  0  0  0
   -0.0460   13.9210    1.6000 N   0  0  0  0  0  0  0  0  0  0  0  0
  1  2  1  0
  2  3  2  0
  2  4  1  0
  3  5  1  0
  4  6  1  0
  5  6  2  0
  6  7  1  0
  7  8  2  0
  7  9  1  0
  8 10  1  0
  9 11  1  0
 10 11  2  0
 10 12  1  0
 12 13  1  0
 13 14  1  0
 13 15  1  0
 14 16  2  0
 15 17  2  0
 16 17  1  0
 15 18  1  0
 17 19  1  0
 18 20  2  0
 19 21  1  0
 19 22  2  0
 20 22  1  0
 20 23  1  0
M  END
>  <comRMSD>  (13) 
1.062144

>  <ref_mols>  (13) 
x0104_0

>  <N_hits>  (13) 
2.0

>  <∆∆G>  (13) 
-4.585113

>  <N_diff_atoms>  (13) 
5.0

>  <generation_date>  (13) 
nan

>  <LE>  (13) 
-0.183405

>  <N_constrained_atoms>  (13) 
19.0

>  <%Rank>  (13) 
66.666667

>  <ref_pdb>  (13) 
x0104_0

>  <original SMILES>  (13) 
CC1=CC=C(C2=NC(CN3C=NC4=C(N)N=C(N)N=C43)=CS2)O1

>  <regarded>  (13) 
mac-x0138,mac-x0161

>  <disregarded>  (13) 


>  <ref_url>  (13) 
nan

$$$$
s-11-2990918-53482
     RDKit          3D

 20 22  0  0  0  0  0  0  0  0999 V2000
   -9.2520   16.8960    3.3500 O   0  0  0  0  0  0  0  0  0  0  0  0
   -8.8230   16.5540    4.4440 C   0  0  0  0  0  0  0  0  0  0  0  0
   -7.7660   15.6410    4.5410 N   0  0  0  0  0  0  0  0  0  0  0  0
   -9.4940   17.1080    5.6380 C   0  0  0  0  0  0  0  0  0  0  0  0
   -7.2190   15.2500    3.2010 C   0  0  0  0  0  0  0  0  0  0  0  0
   -9.2260   16.5540    6.9940 C   0  0  0  0  0  0  0  0  0  0  0  0
  -10.4010   18.1490    5.5550 C   0  0  0  0  0  0  0  0  0  0  0  0
   -5.9530   15.2600    2.7290 N   0  0  0  0  0  0  0  0  0  0  0  0
   -8.2360   14.9240    2.3800 N   0  0  0  0  0  0  0  0  0  0  0  0
   -9.8820   17.0930    8.0730 C   0  0  0  0  0  0  0  0  0  0  0  0
  -11.0430   18.6720    6.6250 N   0  0  0  0  0  0  0  0  0  0  0  0
   -5.6870   15.0260    1.3150 C   0  0  0  0  0  0  0  0  0  0  0  0
   -8.0340   14.6610    1.0550 C   0  0  0  0  0  0  0  0  0  0  0  0
  -10.7790   18.1480    7.8420 C   0  0  0  0  0  0  0  0  0  0  0  0
   -4.4110   15.1170    0.6910 C   0  0  0  0  0  0  0  0  0  0  0  0
   -6.7430   14.7270    0.4650 C   0  0  0  0  0  0  0  0  0  0  0  0
   -8.9270   14.4090    0.2600 O   0  0  0  0  0  0  0  0  0  0  0  0
   -4.3080   14.9060   -0.7060 C   0  0  0  0  0  0  0  0  0  0  0  0
   -6.6310   14.5180   -0.8770 C   0  0  0  0  0  0  0  0  0  0  0  0
   -5.4170   14.6070   -1.4710 C   0  0  0  0  0  0  0  0  0  0  0  0
  1  2  2  0
  2  3  1  0
  2  4  1  0
  3  5  1  0
  4  6  2  0
  4  7  1  0
  5  8  2  0
  5  9  1  0
  6 10  1  0
  7 11  2  0
  8 12  1  0
  9 13  1  0
 10 14  2  0
 11 14  1  0
 12 15  2  0
 12 16  1  0
 13 16  1  0
 13 17  2  0
 15 18  1  0
 16 19  2  0
 18 20  2  0
 19 20  1  0
M  END
>  <comRMSD>  (14) 
1.341235

>  <ref_mols>  (14) 
x0128_0_A

>  <N_hits>  (14) 
2.0

>  <∆∆G>  (14) 
-1.502631

>  <N_diff_atoms>  (14) 
4.0

>  <generation_date>  (14) 
nan

>  <LE>  (14) 
-0.06261

>  <N_constrained_atoms>  (14) 
19.0

>  <%Rank>  (14) 
72.222222

>  <ref_pdb>  (14) 
x0104_0

>  <original SMILES>  (14) 
O=C(NC1=NC2=CC=CC=C2C(=O)[NH]1)C3=CC=CN=C3

>  <regarded>  (14) 
diamond-x0128_0_A,mac-x0341

>  <disregarded>  (14) 


>  <ref_url>  (14) 
nan

$$$$
s-34-13231222-10902660
     RDKit          3D

 18 20  0  0  0  0  0  0  0  0999 V2000
   -4.5790   15.5250    2.6870 N   0  0  0  0  0  0  0  0  0  0  0  0
   -4.2710   15.1670    1.4080 C   0  0  0  0  0  0  0  0  0  0  0  0
   -5.3900   15.2500    0.7880 N   0  0  0  0  0  0  0  0  0  0  0  0
   -2.9850   14.8040    0.9040 N   0  0  0  0  0  0  0  0  0  0  0  0
   -5.4120   14.9990   -0.4700 C   0  0  0  0  0  0  0  0  0  0  0  0
   -2.9920   14.5280   -0.4640 C   0  0  0  0  0  0  0  0  0  0  0  0
   -6.5540   15.0790   -1.1390 N   0  0  0  0  0  0  0  0  0  0  0  0
   -4.1700   14.6180   -1.1750 C   0  0  0  0  0  0  0  0  0  0  0  0
   -2.0510   14.1210   -1.5120 N   0  0  0  0  0  0  0  0  0  0  0  0
   -4.0310   14.3250   -2.5020 N   0  0  0  0  0  0  0  0  0  0  0  0
   -2.7850   14.0390   -2.6650 C   0  0  0  0  0  0  0  0  0  0  0  0
   -0.6050   13.7810   -1.6770 C   0  0  0  0  0  0  0  0  0  0  0  0
   -0.1930   14.0400   -3.0270 C   0  0  0  0  0  0  0  0  0  0  0  0
    0.3960   15.2150   -3.4750 C   0  0  0  0  0  0  0  0  0  0  0  0
   -0.3700   13.0760   -4.0030 N   0  0  0  0  0  0  0  0  0  0  0  0
    0.7220   15.1080   -5.1650 S   0  0  0  0  0  0  0  0  0  0  0  0
    0.0750   13.5250   -5.1400 C   0  0  0  0  0  0  0  0  0  0  0  0
   -0.0040   12.5060   -6.5120 Cl  0  0  0  0  0  0  0  0  0  0  0  0
  1  2  1  0
  2  3  2  0
  2  4  1  0
  3  5  1  0
  4  6  2  0
  5  7  1  0
  5  8  2  0
  6  8  1  0
  6  9  1  0
  8 10  1  0
  9 11  1  0
 10 11  2  0
  9 12  1  0
 12 13  1  0
 13 14  2  0
 13 15  1  0
 14 16  1  0
 15 17  2  0
 16 17  1  0
 17 18  1  0
M  END
>  <comRMSD>  (15) 
1.779626

>  <ref_mols>  (15) 
x0104_0

>  <N_hits>  (15) 
2.0

>  <∆∆G>  (15) 
-4.370858

>  <N_diff_atoms>  (15) 
4.0

>  <generation_date>  (15) 
nan

>  <LE>  (15) 
-0.198675

>  <N_constrained_atoms>  (15) 
18.0

>  <%Rank>  (15) 
77.777778

>  <ref_pdb>  (15) 
x0104_0

>  <original SMILES>  (15) 
NC1=NC(N)=C2N=CN(CC3=CSC(Cl)=N3)C2=N1

>  <regarded>  (15) 
mac-x0213,mac-x0380

>  <disregarded>  (15) 


>  <ref_url>  (15) 
nan

$$$$
s-34-13231222-7874778
     RDKit          3D

 20 23  0  0  0  0  0  0  0  0999 V2000
   -6.3010   14.7430    2.0760 N   0  0  0  0  0  0  0  0  0  0  0  0
   -5.7480   14.7820    0.7980 C   0  0  0  0  0  0  0  0  0  0  0  0
   -6.7100   15.0220   -0.0860 N   0  0  0  0  0  0  0  0  0  0  0  0
   -4.3790   14.6020    0.5310 N   0  0  0  0  0  0  0  0  0  0  0  0
   -6.4180   15.1350   -1.3740 C   0  0  0  0  0  0  0  0  0  0  0  0
   -4.0370   14.7020   -0.8360 C   0  0  0  0  0  0  0  0  0  0  0  0
   -7.4010   15.3930   -2.2880 N   0  0  0  0  0  0  0  0  0  0  0  0
   -5.0140   14.9710   -1.7960 C   0  0  0  0  0  0  0  0  0  0  0  0
   -2.8210   14.5950   -1.7040 N   0  0  0  0  0  0  0  0  0  0  0  0
   -4.5230   15.0450   -3.0670 N   0  0  0  0  0  0  0  0  0  0  0  0
   -3.2580   14.8290   -2.9750 C   0  0  0  0  0  0  0  0  0  0  0  0
   -1.3250   14.3150   -1.6070 C   0  0  0  0  0  0  0  0  0  0  0  0
   -0.6750   14.3890   -2.9180 C   0  0  0  0  0  0  0  0  0  0  0  0
    0.1620   15.4270   -3.3380 C   0  0  0  0  0  0  0  0  0  0  0  0
   -0.8420   13.4010   -3.8820 N   0  0  0  0  0  0  0  0  0  0  0  0
    0.7240   15.1600   -4.9450 S   0  0  0  0  0  0  0  0  0  0  0  0
   -0.1590   13.6940   -4.9670 C   0  0  0  0  0  0  0  0  0  0  0  0
   -0.1920   12.7450   -6.1130 C   0  0  0  0  0  0  0  0  0  0  0  0
    0.0510   11.4600   -5.8370 C   0  0  0  0  0  0  0  0  0  0  0  0
    1.1670   11.9460   -6.5590 C   0  0  0  0  0  0  0  0  0  0  0  0
  1  2  1  0
  2  3  2  0
  2  4  1  0
  3  5  1  0
  4  6  2  0
  5  7  1  0
  5  8  2  0
  6  8  1  0
  6  9  1  0
  8 10  1  0
  9 11  1  0
 10 11  2  0
  9 12  1  0
 12 13  1  0
 13 14  2  0
 13 15  1  0
 14 16  1  0
 15 17  2  0
 16 17  1  0
 17 18  1  0
 18 19  1  0
 18 20  1  0
 19 20  1  0
M  END
>  <comRMSD>  (16) 
1.642628

>  <ref_mols>  (16) 
x0104_0

>  <N_hits>  (16) 
2.0

>  <∆∆G>  (16) 
-5.612435

>  <N_diff_atoms>  (16) 
4.0

>  <generation_date>  (16) 
nan

>  <LE>  (16) 
-0.255111

>  <N_constrained_atoms>  (16) 
17.0

>  <%Rank>  (16) 
83.333333

>  <ref_pdb>  (16) 
x0104_0

>  <original SMILES>  (16) 
NC1=NC(N)=C2N=CN(CC3=CSC(C4CC4)=N3)C2=N1

>  <regarded>  (16) 
mac-x0213,mac-x0380

>  <disregarded>  (16) 


>  <ref_url>  (16) 
nan

$$$$
s-34-13231222-13910464
     RDKit          3D

 18 20  0  0  0  0  0  0  0  0999 V2000
    0.8550   12.6320   -6.3750 C   0  0  0  0  0  0  0  0  0  0  0  0
    0.2900   13.3610   -5.1970 C   0  0  0  0  0  0  0  0  0  0  0  0
   -0.3570   12.7540   -4.2740 N   0  0  0  0  0  0  0  0  0  0  0  0
    0.5070   15.1350   -4.9910 S   0  0  0  0  0  0  0  0  0  0  0  0
   -0.7370   13.6200   -3.2840 C   0  0  0  0  0  0  0  0  0  0  0  0
   -0.3520   14.9550   -3.5020 C   0  0  0  0  0  0  0  0  0  0  0  0
   -1.4190   12.9540   -2.2420 C   0  0  0  0  0  0  0  0  0  0  0  0
   -2.2570   13.6690   -1.2010 N   0  0  0  0  0  0  0  0  0  0  0  0
   -1.5540   14.6170   -0.5380 C   0  0  0  0  0  0  0  0  0  0  0  0
   -3.6280   13.6820   -0.5940 C   0  0  0  0  0  0  0  0  0  0  0  0
   -2.2400   15.2050    0.3740 N   0  0  0  0  0  0  0  0  0  0  0  0
   -3.4770   14.6610    0.3560 C   0  0  0  0  0  0  0  0  0  0  0  0
   -4.8730   13.0370   -0.6920 N   0  0  0  0  0  0  0  0  0  0  0  0
   -4.5010   14.9990    1.1860 C   0  0  0  0  0  0  0  0  0  0  0  0
   -5.8240   13.4800    0.2500 C   0  0  0  0  0  0  0  0  0  0  0  0
   -4.2320   15.9630    2.0640 N   0  0  0  0  0  0  0  0  0  0  0  0
   -5.6760   14.4220    1.1570 N   0  0  0  0  0  0  0  0  0  0  0  0
   -7.0830   12.9130    0.3200 N   0  0  0  0  0  0  0  0  0  0  0  0
  1  2  1  0
  2  3  2  0
  2  4  1  0
  3  5  1  0
  4  6  1  0
  5  6  2  0
  5  7  1  0
  7  8  1  0
  8  9  1  0
  8 10  1  0
  9 11  2  0
 10 12  2  0
 11 12  1  0
 10 13  1  0
 12 14  1  0
 13 15  2  0
 14 16  1  0
 14 17  2  0
 15 17  1  0
 15 18  1  0
M  END
>  <comRMSD>  (17) 
2.086061

>  <ref_mols>  (17) 
x0104_0

>  <N_hits>  (17) 
2.0

>  <∆∆G>  (17) 
-5.738432

>  <N_diff_atoms>  (17) 
5.0

>  <generation_date>  (17) 
nan

>  <LE>  (17) 
-0.273259

>  <N_constrained_atoms>  (17) 
18.0

>  <%Rank>  (17) 
88.888889

>  <ref_pdb>  (17) 
x0104_0

>  <original SMILES>  (17) 
CC1=NC(CN2C=NC3=C(N)N=C(N)N=C32)=CS1

>  <regarded>  (17) 
mac-x0213,mac-x0380

>  <disregarded>  (17) 


>  <ref_url>  (17) 
nan

$$$$
m-272610-18205366-9959790
     RDKit          3D

 21 23  0  0  0  0  0  0  0  0999 V2000
   -0.3300   14.4580    2.1200 O   0  0  0  0  0  0  0  0  0  0  0  0
   -0.7800   14.5260    0.9860 C   0  0  0  0  0  0  0  0  0  0  0  0
   -2.0310   15.0310    0.7400 N   0  0  0  0  0  0  0  0  0  0  0  0
   -0.0390   13.9960   -0.2360 C   0  0  0  0  0  0  0  0  0  0  0  0
   -2.4170   14.3140   -0.4050 C   0  0  2  0  0  0  0  0  0  0  0  0
   -0.6120   12.9320   -0.9610 C   0  0  0  0  0  0  0  0  0  0  0  0
    1.1810   14.4840   -0.7060 C   0  0  0  0  0  0  0  0  0  0  0  0
   -2.5580   15.0260   -1.6820 C   0  0  0  0  0  0  0  0  0  0  0  0
   -3.6850   13.4930   -0.6390 C   0  0  1  0  0  0  0  0  0  0  0  0
    0.0180   12.3860   -2.0870 C   0  0  0  0  0  0  0  0  0  0  0  0
    1.8180   13.9440   -1.8310 C   0  0  0  0  0  0  0  0  0  0  0  0
   -1.5820   15.5560   -2.5630 C   0  0  0  0  0  0  0  0  0  0  0  0
   -3.9360   15.0600   -1.9390 C   0  0  0  0  0  0  0  0  0  0  0  0
   -4.7570   14.5030   -0.8400 C   0  0  0  0  0  0  0  0  0  0  0  0
   -3.6640   12.8820   -2.0230 C   0  0  0  0  0  0  0  0  0  0  0  0
    1.2360   12.8900   -2.5220 C   0  0  0  0  0  0  0  0  0  0  0  0
   -2.0480   16.0860   -3.7540 C   0  0  0  0  0  0  0  0  0  0  0  0
   -4.3660   15.5420   -3.0820 C   0  0  0  0  0  0  0  0  0  0  0  0
   -4.6500   12.4100   -2.5690 O   0  0  0  0  0  0  0  0  0  0  0  0
   -2.4850   12.9430   -2.6810 O   0  0  0  0  0  0  0  0  0  0  0  0
   -3.4170   16.0460   -3.9960 C   0  0  0  0  0  0  0  0  0  0  0  0
  1  2  2  0
  2  3  1  0
  2  4  1  0
  5  3  1  1
  4  6  2  0
  4  7  1  0
  5  8  1  0
  5  9  1  0
  6 10  1  0
  7 11  2  0
  8 12  2  0
  8 13  1  0
  9 14  1  0
 13 14  1  0
  9 15  1  6
 10 16  2  0
 11 16  1  0
 12 17  1  0
 13 18  2  0
 15 19  2  0
 15 20  1  0
 17 21  2  0
 18 21  1  0
M  END
>  <comRMSD>  (18) 
2.735909

>  <ref_mols>  (18) 
x0104_0

>  <N_hits>  (18) 
2.0

>  <∆∆G>  (18) 
-1.954573

>  <N_diff_atoms>  (18) 
-3.0

>  <generation_date>  (18) 
nan

>  <LE>  (18) 
-0.075176

>  <N_constrained_atoms>  (18) 
16.0

>  <%Rank>  (18) 
94.444444

>  <ref_pdb>  (18) 
x0104_0

>  <original SMILES>  (18) 
O=C(NC1C2=CC=CC=C2CC1C(=O)O)C3=CC=CC=C3

>  <regarded>  (18) 
mac-x0213,mac-x0398

>  <disregarded>  (18) 


>  <ref_url>  (18) 
nan

$$$$
s-22-17541880-294410
     RDKit          3D

 21 23  0  0  0  0  0  0  0  0999 V2000
   -9.9050   16.1500    2.1450 O   0  0  0  0  0  0  0  0  0  0  0  0
  -10.0680   15.3670    1.2100 C   0  0  0  0  0  0  0  0  0  0  0  0
  -11.1850   15.5270    0.2010 C   0  0  0  0  0  0  0  0  0  0  0  0
   -9.2730   14.2770    0.9670 N   0  0  0  0  0  0  0  0  0  0  0  0
  -11.3250   16.8950   -0.4240 C   0  0  0  0  0  0  0  0  0  0  0  0
   -8.1740   14.4110    0.2540 C   0  0  0  0  0  0  0  0  0  0  0  0
  -11.2090   18.1210    0.2300 C   0  0  0  0  0  0  0  0  0  0  0  0
  -11.6060   16.9310   -1.7980 C   0  0  0  0  0  0  0  0  0  0  0  0
   -7.3690   14.6310    1.1110 N   0  0  0  0  0  0  0  0  0  0  0  0
   -7.9340   14.3440   -1.1090 N   0  0  0  0  0  0  0  0  0  0  0  0
  -11.3830   19.2970   -0.5040 C   0  0  0  0  0  0  0  0  0  0  0  0
  -11.7580   18.1600   -2.4400 C   0  0  0  0  0  0  0  0  0  0  0  0
   -6.1580   14.8280    0.7800 C   0  0  0  0  0  0  0  0  0  0  0  0
   -6.6570   14.6670   -1.6070 C   0  0  0  0  0  0  0  0  0  0  0  0
  -11.6540   19.3460   -1.8200 N   0  0  0  0  0  0  0  0  0  0  0  0
   -5.4450   14.9920    1.8610 C   0  0  0  0  0  0  0  0  0  0  0  0
   -5.6630   14.8710   -0.4630 C   0  0  0  0  0  0  0  0  0  0  0  0
   -6.3650   14.7750   -2.7850 O   0  0  0  0  0  0  0  0  0  0  0  0
   -4.0310   15.2160    1.6610 C   0  0  0  0  0  0  0  0  0  0  0  0
   -4.3100   15.0910   -0.6920 C   0  0  0  0  0  0  0  0  0  0  0  0
   -3.4690   15.2640    0.3900 C   0  0  0  0  0  0  0  0  0  0  0  0
  1  2  2  0
  2  3  1  0
  2  4  1  0
  3  5  1  0
  4  6  1  0
  5  7  2  0
  5  8  1  0
  6  9  2  0
  6 10  1  0
  7 11  1  0
  8 12  2  0
  9 13  1  0
 10 14  1  0
 11 15  2  0
 12 15  1  0
 13 16  2  0
 13 17  1  0
 14 17  1  0
 14 18  2  0
 16 19  1  0
 17 20  2  0
 19 21  2  0
 20 21  1  0
M  END
>  <comRMSD>  (19) 
2.065305

>  <ref_mols>  (19) 
x0128_0_A

>  <N_hits>  (19) 
2.0

>  <∆∆G>  (19) 
-4.326511

>  <N_diff_atoms>  (19) 
4.0

>  <generation_date>  (19) 
nan

>  <LE>  (19) 
-0.180271

>  <N_constrained_atoms>  (19) 
12.0

>  <%Rank>  (19) 
100.0

>  <ref_pdb>  (19) 
x0104_0

>  <original SMILES>  (19) 
O=C(CC1=CC=NC=C1)NC2=NC3=CC=CC=C3C(=O)[NH]2

>  <regarded>  (19) 
mac-x0341,diamond-x0128_0_A

>  <disregarded>  (19) 


>  <ref_url>  (19) 
nan

$$$$
